
     RDKit          2D

 21 23  0  0  0  0  0  0  0  0999 V2000
    3.7500    1.2990    0.0000 C   0  0  0  0  0  0  0  0  0  0  0  0
    3.0000    0.0000    0.0000 O   0  0  0  0  0  0  0  0  0  0  0  0
    1.5000    0.0000    0.0000 C   0  0  0  0  0  0  0  0  0  0  0  0
    0.7500    1.2990    0.0000 C   0  0  0  0  0  0  0  0  0  0  0  0
   -0.7500    1.2990    0.0000 C   0  0  0  0  0  0  0  0  0  0  0  0
   -1.5000    0.0000    0.0000 C   0  0  0  0  0  0  0  0  0  0  0  0
   -3.0000    0.0000    0.0000 C   0  0  0  0  0  0  0  0  0  0  0  0
   -3.8817   -1.2135    0.0000 N   0  0  0  0  0  0  0  0  0  0  0  0
   -5.3083   -0.7500    0.0000 N   0  0  0  0  0  0  0  0  0  0  0  0
   -5.3083    0.7500    0.0000 N   0  0  0  0  0  0  0  0  0  0  0  0
   -3.8817    1.2135    0.0000 N   0  0  0  0  0  0  0  0  0  0  0  0
   -3.4182    2.6401    0.0000 C   0  0  0  0  0  0  0  0  0  0  0  0
   -1.9509    2.9520    0.0000 C   0  0  0  0  0  0  0  0  0  0  0  0
   -1.4874    4.3786    0.0000 C   0  0  0  0  0  0  0  0  0  0  0  0
   -2.4911    5.4933    0.0000 C   0  0  0  0  0  0  0  0  0  0  0  0
   -2.0276    6.9199    0.0000 C   0  0  0  0  0  0  0  0  0  0  0  0
   -3.9583    5.1814    0.0000 C   0  0  0  0  0  0  0  0  0  0  0  0
   -4.4218    3.7548    0.0000 C   0  0  0  0  0  0  0  0  0  0  0  0
   -0.7500   -1.2990    0.0000 C   0  0  0  0  0  0  0  0  0  0  0  0
   -1.5000   -2.5981    0.0000 O   0  0  0  0  0  0  0  0  0  0  0  0
    0.7500   -1.2990    0.0000 N   0  0  0  0  0  0  0  0  0  0  0  0
  1  2  1  0
  2  3  1  0
  3  4  2  0
  4  5  1  0
  5  6  2  0
  6  7  1  0
  7  8  2  0
  8  9  1  0
  9 10  2  0
 10 11  1  0
 11 12  1  0
 12 13  2  0
 13 14  1  0
 14 15  2  0
 15 16  1  0
 15 17  1  0
 17 18  1  0
  6 19  1  0
 19 20  2  0
 19 21  1  0
 21  3  1  0
 11  7  1  0
 18 12  1  0
M  END
>  <Title>  (1) 
idAAAAgen7

$$$$

     RDKit          2D

 25 28  0  0  0  0  0  0  0  0999 V2000
    1.8478   -6.4639    0.0000 N   0  0  0  0  0  0  0  0  0  0  0  0
    2.0046   -4.9721    0.0000 C   0  0  0  0  0  0  0  0  0  0  0  0
    3.3037   -4.2221    0.0000 C   0  0  0  0  0  0  0  0  0  0  0  0
    2.9918   -2.7549    0.0000 C   0  0  0  0  0  0  0  0  0  0  0  0
    1.5000   -2.5981    0.0000 C   0  0  0  0  0  0  0  0  0  0  0  0
    0.7500   -1.2990    0.0000 C   0  0  0  0  0  0  0  0  0  0  0  0
    1.5000    0.0000    0.0000 C   0  0  0  0  0  0  0  0  0  0  0  0
    0.7500    1.2990    0.0000 C   0  0  0  0  0  0  0  0  0  0  0  0
   -0.7500    1.2990    0.0000 C   0  0  0  0  0  0  0  0  0  0  0  0
   -1.5000    2.5981    0.0000 N   0  0  0  0  0  0  0  0  0  0  0  0
   -2.9918    2.7549    0.0000 N   0  0  0  0  0  0  0  0  0  0  0  0
   -3.3037    4.2221    0.0000 N   0  0  0  0  0  0  0  0  0  0  0  0
   -2.0046    4.9721    0.0000 N   0  0  0  0  0  0  0  0  0  0  0  0
   -0.8899    3.9684    0.0000 C   0  0  0  0  0  0  0  0  0  0  0  0
    0.5773    4.2803    0.0000 C   0  0  0  0  0  0  0  0  0  0  0  0
    1.5810    3.1655    0.0000 C   0  0  0  0  0  0  0  0  0  0  0  0
    3.0482    3.4774    0.0000 C   0  0  0  0  0  0  0  0  0  0  0  0
    3.5118    4.9040    0.0000 C   0  0  0  0  0  0  0  0  0  0  0  0
    2.5081    6.0187    0.0000 C   0  0  0  0  0  0  0  0  0  0  0  0
    2.9716    7.4453    0.0000 O   0  0  0  0  0  0  0  0  0  0  0  0
    1.0409    5.7068    0.0000 C   0  0  0  0  0  0  0  0  0  0  0  0
   -1.5000    0.0000    0.0000 C   0  0  0  0  0  0  0  0  0  0  0  0
   -0.7500   -1.2990    0.0000 C   0  0  0  0  0  0  0  0  0  0  0  0
    0.8899   -3.9684    0.0000 C   0  0  0  0  0  0  0  0  0  0  0  0
   -0.5773   -4.2803    0.0000 O   0  0  0  0  0  0  0  0  0  0  0  0
  1  2  1  0
  2  3  2  0
  3  4  1  0
  4  5  2  0
  5  6  1  0
  6  7  2  0
  7  8  1  0
  8  9  2  0
  9 10  1  0
 10 11  1  0
 11 12  2  0
 12 13  1  0
 13 14  2  0
 14 15  1  0
 15 16  2  0
 16 17  1  0
 17 18  2  0
 18 19  1  0
 19 20  2  0
 19 21  1  0
  9 22  1  0
 22 23  2  0
  5 24  1  0
 24 25  2  0
 24  2  1  0
 23  6  1  0
 14 10  1  0
 21 15  1  0
M  END
>  <Title>  (2) 
idAAABgen7

$$$$

     RDKit          2D

  7  7  0  0  0  0  0  0  0  0999 V2000
    2.7760    0.0000    0.0000 C   0  0  0  0  0  0  0  0  0  0  0  0
    1.2760    0.0000    0.0000 C   0  0  0  0  0  0  0  0  0  0  0  0
    0.3943    1.2135    0.0000 C   0  0  0  0  0  0  0  0  0  0  0  0
   -1.0323    0.7500    0.0000 C   0  0  0  0  0  0  0  0  0  0  0  0
   -1.0323   -0.7500    0.0000 C   0  0  0  0  0  0  0  0  0  0  0  0
   -2.2458   -1.6317    0.0000 C   0  0  0  0  0  0  0  0  0  0  0  0
    0.3943   -1.2135    0.0000 N   0  0  0  0  0  0  0  0  0  0  0  0
  1  2  1  0
  2  3  2  0
  3  4  1  0
  4  5  2  0
  5  6  1  0
  5  7  1  0
  7  2  1  0
M  END
>  <Title>  (3) 
idAAACgen7

$$$$

     RDKit          2D

  6  6  0  0  0  0  0  0  0  0999 V2000
    2.7760    0.0000    0.0000 O   0  0  0  0  0  0  0  0  0  0  0  0
    1.2760    0.0000    0.0000 C   0  0  0  0  0  0  0  0  0  0  0  0
    0.3943    1.2135    0.0000 C   0  0  0  0  0  0  0  0  0  0  0  0
   -1.0323    0.7500    0.0000 C   0  0  0  0  0  0  0  0  0  0  0  0
   -1.0323   -0.7500    0.0000 C   0  0  0  0  0  0  0  0  0  0  0  0
    0.3943   -1.2135    0.0000 C   0  0  0  0  0  0  0  0  0  0  0  0
  1  2  1  0
  2  3  2  0
  3  4  1  0
  4  5  2  0
  5  6  1  0
  6  2  1  0
M  END
>  <Title>  (4) 
idAAADgen7

$$$$

     RDKit          2D

  7  7  0  0  0  0  0  0  0  0999 V2000
    2.7760    0.0000    0.0000 C   0  0  0  0  0  0  0  0  0  0  0  0
    1.2760    0.0000    0.0000 C   0  0  0  0  0  0  0  0  0  0  0  0
    0.3943    1.2135    0.0000 C   0  0  0  0  0  0  0  0  0  0  0  0
   -1.0323    0.7500    0.0000 C   0  0  0  0  0  0  0  0  0  0  0  0
   -1.0323   -0.7500    0.0000 C   0  0  0  0  0  0  0  0  0  0  0  0
   -2.2458   -1.6317    0.0000 C   0  0  0  0  0  0  0  0  0  0  0  0
    0.3943   -1.2135    0.0000 N   0  0  0  0  0  0  0  0  0  0  0  0
  1  2  1  0
  2  3  2  0
  3  4  1  0
  4  5  2  0
  5  6  1  0
  5  7  1  0
  7  2  1  0
M  END
>  <Title>  (5) 
idAAAEgen7

$$$$

     RDKit          2D

  7  7  0  0  0  0  0  0  0  0999 V2000
    3.0000    0.0000    0.0000 C   0  0  0  0  0  0  0  0  0  0  0  0
    1.5000    0.0000    0.0000 C   0  0  0  0  0  0  0  0  0  0  0  0
    0.7500   -1.2990    0.0000 C   0  0  0  0  0  0  0  0  0  0  0  0
   -0.7500   -1.2990    0.0000 C   0  0  0  0  0  0  0  0  0  0  0  0
   -1.5000    0.0000    0.0000 C   0  0  0  0  0  0  0  0  0  0  0  0
   -0.7500    1.2990    0.0000 C   0  0  0  0  0  0  0  0  0  0  0  0
    0.7500    1.2990    0.0000 N   0  0  0  0  0  0  0  0  0  0  0  0
  1  2  1  0
  2  3  2  0
  3  4  1  0
  4  5  2  0
  5  6  1  0
  6  7  2  0
  7  2  1  0
M  END
>  <Title>  (6) 
idAAAFgen7

$$$$

     RDKit          2D

 63 71  0  0  0  0  0  0  0  0999 V2000
    3.7500   -1.2990    0.0000 C   0  0  0  0  0  0  0  0  0  0  0  0
    3.0000    0.0000    0.0000 O   0  0  0  0  0  0  0  0  0  0  0  0
    1.5000    0.0000    0.0000 C   0  0  0  0  0  0  0  0  0  0  0  0
    0.7500   -1.2990    0.0000 C   0  0  0  0  0  0  0  0  0  0  0  0
   -0.7500   -1.2990    0.0000 C   0  0  0  0  0  0  0  0  0  0  0  0
   -1.5000    0.0000    0.0000 C   0  0  0  0  0  0  0  0  0  0  0  0
   -3.0000    0.0000    0.0000 C   0  0  0  0  0  0  0  0  0  0  0  0
   -3.7500   -1.2990    0.0000 O   0  0  0  0  0  0  0  0  0  0  0  0
   -3.7500    1.2990    0.0000 N   0  0  0  0  0  0  0  0  0  0  0  0
   -5.2500    1.2990    0.0000 C   0  0  0  0  0  0  0  0  0  0  0  0
   -6.1317    0.0855    0.0000 N   0  0  0  0  0  0  0  0  0  0  0  0
   -7.5583    0.5490    0.0000 N   0  0  0  0  0  0  0  0  0  0  0  0
   -7.5583    2.0490    0.0000 N   0  0  0  0  0  0  0  0  0  0  0  0
   -6.1317    2.5126    0.0000 N   0  0  0  0  0  0  0  0  0  0  0  0
   -5.6682    3.9391    0.0000 C   0  0  0  0  0  0  0  0  0  0  0  0
   -4.2009    4.2510    0.0000 C   0  0  0  0  0  0  0  0  0  0  0  0
   -3.7374    5.6776    0.0000 C   0  0  0  0  0  0  0  0  0  0  0  0
   -4.7411    6.7923    0.0000 C   0  0  0  0  0  0  0  0  0  0  0  0
   -4.2776    8.2189    0.0000 C   0  0  0  0  0  0  0  0  0  0  0  0
   -5.1593    9.4324    0.0000 N   0  0  0  0  0  0  0  0  0  0  0  0
   -4.2776   10.6460    0.0000 N   0  0  0  0  0  0  0  0  0  0  0  0
   -2.8510   10.1824    0.0000 N   0  0  0  0  0  0  0  0  0  0  0  0
   -2.8510    8.6824    0.0000 N   0  0  0  0  0  0  0  0  0  0  0  0
   -1.6375    7.8008    0.0000 N   0  0  0  0  0  0  0  0  0  0  0  0
   -0.2671    8.4109    0.0000 C   0  0  0  0  0  0  0  0  0  0  0  0
    0.0447    9.8781    0.0000 N   0  0  0  0  0  0  0  0  0  0  0  0
    1.5365   10.0349    0.0000 N   0  0  0  0  0  0  0  0  0  0  0  0
    2.1466    8.6646    0.0000 N   0  0  0  0  0  0  0  0  0  0  0  0
    1.0319    7.6609    0.0000 N   0  0  0  0  0  0  0  0  0  0  0  0
    1.1887    6.1691    0.0000 N   0  0  0  0  0  0  0  0  0  0  0  0
   -0.0248    5.2874    0.0000 N   0  0  0  0  0  0  0  0  0  0  0  0
    0.1320    3.7956    0.0000 N   0  0  0  0  0  0  0  0  0  0  0  0
    1.5023    3.1855    0.0000 N   0  0  0  0  0  0  0  0  0  0  0  0
    2.7158    4.0672    0.0000 N   0  0  0  0  0  0  0  0  0  0  0  0
    2.5590    5.5590    0.0000 N   0  0  0  0  0  0  0  0  0  0  0  0
    3.7725    6.4406    0.0000 C   0  0  0  0  0  0  0  0  0  0  0  0
    5.1428    5.8305    0.0000 C   0  0  0  0  0  0  0  0  0  0  0  0
    6.3564    6.7122    0.0000 C   0  0  0  0  0  0  0  0  0  0  0  0
    6.1996    8.2040    0.0000 C   0  0  0  0  0  0  0  0  0  0  0  0
    7.4131    9.0857    0.0000 C   0  0  0  0  0  0  0  0  0  0  0  0
    8.7834    8.4756    0.0000 C   0  0  0  0  0  0  0  0  0  0  0  0
    9.9969    9.3573    0.0000 C   0  0  0  0  0  0  0  0  0  0  0  0
    9.8402   10.8490    0.0000 C   0  0  0  0  0  0  0  0  0  0  0  0
    8.4698   11.4591    0.0000 C   0  0  0  0  0  0  0  0  0  0  0  0
    8.3130   12.9509    0.0000 O   0  0  0  0  0  0  0  0  0  0  0  0
    7.2563   10.5775    0.0000 C   0  0  0  0  0  0  0  0  0  0  0  0
    4.8293    8.8141    0.0000 C   0  0  0  0  0  0  0  0  0  0  0  0
    3.6157    7.9324    0.0000 C   0  0  0  0  0  0  0  0  0  0  0  0
   -6.2083    6.4805    0.0000 C   0  0  0  0  0  0  0  0  0  0  0  0
   -6.6718    5.0539    0.0000 C   0  0  0  0  0  0  0  0  0  0  0  0
   -8.1391    4.7420    0.0000 C   0  0  0  0  0  0  0  0  0  0  0  0
   -9.1428    5.8567    0.0000 C   0  0  0  0  0  0  0  0  0  0  0  0
  -10.6100    5.5448    0.0000 C   0  0  0  0  0  0  0  0  0  0  0  0
  -11.0735    4.1183    0.0000 C   0  0  0  0  0  0  0  0  0  0  0  0
  -12.5407    3.8064    0.0000 C   0  0  0  0  0  0  0  0  0  0  0  0
  -13.0043    2.3798    0.0000 O   0  0  0  0  0  0  0  0  0  0  0  0
  -13.5444    4.9211    0.0000 N   0  0  0  0  0  0  0  0  0  0  0  0
  -15.0117    4.6092    0.0000 O   0  0  0  0  0  0  0  0  0  0  0  0
  -10.0698    3.0035    0.0000 C   0  0  0  0  0  0  0  0  0  0  0  0
   -8.6026    3.3154    0.0000 C   0  0  0  0  0  0  0  0  0  0  0  0
   -0.7500    1.2990    0.0000 C   0  0  0  0  0  0  0  0  0  0  0  0
   -1.5000    2.5981    0.0000 O   0  0  0  0  0  0  0  0  0  0  0  0
    0.7500    1.2990    0.0000 N   0  0  0  0  0  0  0  0  0  0  0  0
  1  2  1  0
  2  3  1  0
  3  4  2  0
  4  5  1  0
  5  6  2  0
  6  7  1  0
  7  8  2  0
  7  9  1  0
  9 10  1  0
 10 11  2  0
 11 12  1  0
 12 13  2  0
 13 14  1  0
 14 15  1  0
 15 16  2  0
 16 17  1  0
 17 18  2  0
 18 19  1  0
 19 20  2  0
 20 21  1  0
 21 22  2  0
 22 23  1  0
 23 24  1  0
 24 25  1  0
 25 26  2  0
 26 27  1  0
 27 28  2  0
 28 29  1  0
 29 30  1  0
 30 31  1  0
 31 32  2  0
 32 33  1  0
 33 34  2  0
 34 35  1  0
 35 36  1  0
 36 37  2  0
 37 38  1  0
 38 39  2  0
 39 40  1  0
 40 41  2  0
 41 42  1  0
 42 43  2  0
 43 44  1  0
 44 45  2  0
 44 46  1  0
 39 47  1  0
 47 48  2  0
 18 49  1  0
 49 50  2  0
 50 51  1  0
 51 52  2  0
 52 53  1  0
 53 54  2  0
 54 55  1  0
 55 56  2  0
 55 57  1  0
 57 58  1  0
 54 59  1  0
 59 60  1  0
  6 61  1  0
 61 62  2  0
 61 63  1  0
 63  3  1  0
 14 10  1  0
 50 15  1  0
 60 51  1  0
 23 19  1  0
 29 25  1  0
 35 30  1  0
 48 36  1  0
 46 40  1  0
M  END
>  <Title>  (7) 
idAAAGgen7

$$$$

     RDKit          2D

  7  7  0  0  0  0  0  0  0  0999 V2000
    3.0000    0.0000    0.0000 C   0  0  0  0  0  0  0  0  0  0  0  0
    1.5000    0.0000    0.0000 C   0  0  0  0  0  0  0  0  0  0  0  0
    0.7500   -1.2990    0.0000 C   0  0  0  0  0  0  0  0  0  0  0  0
   -0.7500   -1.2990    0.0000 C   0  0  0  0  0  0  0  0  0  0  0  0
   -1.5000    0.0000    0.0000 C   0  0  0  0  0  0  0  0  0  0  0  0
   -0.7500    1.2990    0.0000 C   0  0  0  0  0  0  0  0  0  0  0  0
    0.7500    1.2990    0.0000 N   0  0  0  0  0  0  0  0  0  0  0  0
  1  2  1  0
  2  3  2  0
  3  4  1  0
  4  5  2  0
  5  6  1  0
  6  7  2  0
  7  2  1  0
M  END
>  <Title>  (8) 
idAAAHgen7

$$$$

     RDKit          2D

  8  8  0  0  0  0  0  0  0  0999 V2000
    3.7500   -1.2990    0.0000 C   0  0  0  0  0  0  0  0  0  0  0  0
    3.0000    0.0000    0.0000 O   0  0  0  0  0  0  0  0  0  0  0  0
    1.5000    0.0000    0.0000 C   0  0  0  0  0  0  0  0  0  0  0  0
    0.7500   -1.2990    0.0000 C   0  0  0  0  0  0  0  0  0  0  0  0
   -0.7500   -1.2990    0.0000 C   0  0  0  0  0  0  0  0  0  0  0  0
   -1.5000    0.0000    0.0000 C   0  0  0  0  0  0  0  0  0  0  0  0
   -0.7500    1.2990    0.0000 C   0  0  0  0  0  0  0  0  0  0  0  0
    0.7500    1.2990    0.0000 C   0  0  0  0  0  0  0  0  0  0  0  0
  1  2  1  0
  2  3  1  0
  3  4  2  0
  4  5  1  0
  5  6  2  0
  6  7  1  0
  7  8  2  0
  8  3  1  0
M  END
>  <Title>  (9) 
idAAAIgen7

$$$$

     RDKit          2D

  3  2  0  0  0  0  0  0  0  0999 V2000
    0.0000    0.0000    0.0000 C   0  0  0  0  0  0  0  0  0  0  0  0
    1.2990    0.7500    0.0000 C   0  0  0  0  0  0  0  0  0  0  0  0
    2.5981   -0.0000    0.0000 Br  0  0  0  0  0  0  0  0  0  0  0  0
  1  2  1  0
  2  3  1  0
M  END
>  <Title>  (10) 
idAAAJgen7

$$$$

     RDKit          2D

  8  8  0  0  0  0  0  0  0  0999 V2000
    3.7500   -1.2990    0.0000 C   0  0  0  0  0  0  0  0  0  0  0  0
    3.0000    0.0000    0.0000 O   0  0  0  0  0  0  0  0  0  0  0  0
    1.5000    0.0000    0.0000 C   0  0  0  0  0  0  0  0  0  0  0  0
    0.7500   -1.2990    0.0000 C   0  0  0  0  0  0  0  0  0  0  0  0
   -0.7500   -1.2990    0.0000 C   0  0  0  0  0  0  0  0  0  0  0  0
   -1.5000    0.0000    0.0000 C   0  0  0  0  0  0  0  0  0  0  0  0
   -0.7500    1.2990    0.0000 C   0  0  0  0  0  0  0  0  0  0  0  0
    0.7500    1.2990    0.0000 C   0  0  0  0  0  0  0  0  0  0  0  0
  1  2  1  0
  2  3  1  0
  3  4  2  0
  4  5  1  0
  5  6  2  0
  6  7  1  0
  7  8  2  0
  8  3  1  0
M  END
>  <Title>  (11) 
idAAAKgen7

$$$$

     RDKit          2D

  7  7  0  0  0  0  0  0  0  0999 V2000
    3.0000    0.0000    0.0000 C   0  0  0  0  0  0  0  0  0  0  0  0
    1.5000    0.0000    0.0000 C   0  0  0  0  0  0  0  0  0  0  0  0
    0.7500   -1.2990    0.0000 C   0  0  0  0  0  0  0  0  0  0  0  0
   -0.7500   -1.2990    0.0000 C   0  0  0  0  0  0  0  0  0  0  0  0
   -1.5000    0.0000    0.0000 C   0  0  0  0  0  0  0  0  0  0  0  0
   -0.7500    1.2990    0.0000 C   0  0  0  0  0  0  0  0  0  0  0  0
    0.7500    1.2990    0.0000 N   0  0  0  0  0  0  0  0  0  0  0  0
  1  2  1  0
  2  3  1  0
  3  4  1  0
  4  5  2  0
  5  6  1  0
  6  7  2  0
  7  2  1  0
M  END
>  <Title>  (12) 
idAAALgen7

$$$$

     RDKit          2D

  8  8  0  0  0  0  0  0  0  0999 V2000
    3.7500   -1.2990    0.0000 C   0  0  0  0  0  0  0  0  0  0  0  0
    3.0000    0.0000    0.0000 O   0  0  0  0  0  0  0  0  0  0  0  0
    1.5000    0.0000    0.0000 C   0  0  0  0  0  0  0  0  0  0  0  0
    0.7500   -1.2990    0.0000 C   0  0  0  0  0  0  0  0  0  0  0  0
   -0.7500   -1.2990    0.0000 C   0  0  0  0  0  0  0  0  0  0  0  0
   -1.5000    0.0000    0.0000 C   0  0  0  0  0  0  0  0  0  0  0  0
   -0.7500    1.2990    0.0000 C   0  0  0  0  0  0  0  0  0  0  0  0
    0.7500    1.2990    0.0000 C   0  0  0  0  0  0  0  0  0  0  0  0
  1  2  1  0
  2  3  1  0
  3  4  2  0
  4  5  1  0
  5  6  2  0
  6  7  1  0
  7  8  2  0
  8  3  1  0
M  END
>  <Title>  (13) 
idAAAMgen7

$$$$

     RDKit          2D

 11 11  0  0  0  0  0  0  0  0999 V2000
    5.0260   -1.2990    0.0000 C   0  0  0  0  0  0  0  0  0  0  0  0
    3.5260   -1.2990    0.0000 C   0  0  0  0  0  0  0  0  0  0  0  0
    2.7760   -2.5981    0.0000 O   0  0  0  0  0  0  0  0  0  0  0  0
    2.7760    0.0000    0.0000 O   0  0  0  0  0  0  0  0  0  0  0  0
    1.2760    0.0000    0.0000 C   0  0  0  0  0  0  0  0  0  0  0  0
    0.3943    1.2135    0.0000 C   0  0  0  0  0  0  0  0  0  0  0  0
    0.8578    2.6401    0.0000 C   0  0  0  0  0  0  0  0  0  0  0  0
    2.3250    2.9520    0.0000 N   0  0  0  0  0  0  0  0  0  0  0  0
   -1.0323    0.7500    0.0000 C   0  0  0  0  0  0  0  0  0  0  0  0
   -1.0323   -0.7500    0.0000 C   0  0  0  0  0  0  0  0  0  0  0  0
    0.3943   -1.2135    0.0000 C   0  0  0  0  0  0  0  0  0  0  0  0
  1  2  1  0
  2  3  2  0
  2  4  1  0
  4  5  1  0
  5  6  2  0
  6  7  1  0
  7  8  2  0
  6  9  1  0
  9 10  2  0
 10 11  1  0
 11  5  1  0
M  END
>  <Title>  (14) 
idAAANgen7

$$$$

     RDKit          2D

  8  8  0  0  0  0  0  0  0  0999 V2000
    3.7500   -1.2990    0.0000 C   0  0  0  0  0  0  0  0  0  0  0  0
    3.0000    0.0000    0.0000 O   0  0  0  0  0  0  0  0  0  0  0  0
    1.5000    0.0000    0.0000 C   0  0  0  0  0  0  0  0  0  0  0  0
    0.7500   -1.2990    0.0000 C   0  0  0  0  0  0  0  0  0  0  0  0
   -0.7500   -1.2990    0.0000 C   0  0  0  0  0  0  0  0  0  0  0  0
   -1.5000    0.0000    0.0000 C   0  0  0  0  0  0  0  0  0  0  0  0
   -0.7500    1.2990    0.0000 C   0  0  0  0  0  0  0  0  0  0  0  0
    0.7500    1.2990    0.0000 C   0  0  0  0  0  0  0  0  0  0  0  0
  1  2  1  0
  2  3  1  0
  3  4  2  0
  4  5  1  0
  5  6  2  0
  6  7  1  0
  7  8  2  0
  8  3  1  0
M  END
>  <Title>  (15) 
idAAAOgen7

$$$$

     RDKit          2D

 15 16  0  0  0  0  0  0  0  0999 V2000
    3.7500   -1.2990    0.0000 C   0  0  0  0  0  0  0  0  0  0  0  0
    3.0000    0.0000    0.0000 O   0  0  0  0  0  0  0  0  0  0  0  0
    1.5000    0.0000    0.0000 C   0  0  0  0  0  0  0  0  0  0  0  0
    0.7500   -1.2990    0.0000 C   0  0  0  0  0  0  0  0  0  0  0  0
   -0.7500   -1.2990    0.0000 C   0  0  0  0  0  0  0  0  0  0  0  0
   -1.5000    0.0000    0.0000 C   0  0  0  0  0  0  0  0  0  0  0  0
   -3.0000    0.0000    0.0000 C   0  0  0  0  0  0  0  0  0  0  0  0
   -3.7500    1.2990    0.0000 C   0  0  0  0  0  0  0  0  0  0  0  0
   -5.2500    1.2990    0.0000 C   0  0  0  0  0  0  0  0  0  0  0  0
   -6.0000    0.0000    0.0000 C   0  0  0  0  0  0  0  0  0  0  0  0
   -5.2500   -1.2990    0.0000 C   0  0  0  0  0  0  0  0  0  0  0  0
   -3.7500   -1.2990    0.0000 N   0  0  0  0  0  0  0  0  0  0  0  0
   -0.7500    1.2990    0.0000 C   0  0  0  0  0  0  0  0  0  0  0  0
   -1.5000    2.5981    0.0000 O   0  0  0  0  0  0  0  0  0  0  0  0
    0.7500    1.2990    0.0000 N   0  0  0  0  0  0  0  0  0  0  0  0
  1  2  1  0
  2  3  1  0
  3  4  2  0
  4  5  1  0
  5  6  2  0
  6  7  1  0
  7  8  2  0
  8  9  1  0
  9 10  2  0
 10 11  1  0
 11 12  2  0
  6 13  1  0
 13 14  2  0
 13 15  1  0
 15  3  1  0
 12  7  1  0
M  END
>  <Title>  (16) 
idAAAPgen7

$$$$

     RDKit          2D

  8  8  0  0  0  0  0  0  0  0999 V2000
    3.7500   -1.2990    0.0000 C   0  0  0  0  0  0  0  0  0  0  0  0
    3.0000    0.0000    0.0000 O   0  0  0  0  0  0  0  0  0  0  0  0
    1.5000    0.0000    0.0000 C   0  0  0  0  0  0  0  0  0  0  0  0
    0.7500   -1.2990    0.0000 C   0  0  0  0  0  0  0  0  0  0  0  0
   -0.7500   -1.2990    0.0000 C   0  0  0  0  0  0  0  0  0  0  0  0
   -1.5000    0.0000    0.0000 C   0  0  0  0  0  0  0  0  0  0  0  0
   -0.7500    1.2990    0.0000 C   0  0  0  0  0  0  0  0  0  0  0  0
    0.7500    1.2990    0.0000 C   0  0  0  0  0  0  0  0  0  0  0  0
  1  2  1  0
  2  3  1  0
  3  4  2  0
  4  5  1  0
  5  6  2  0
  6  7  1  0
  7  8  2  0
  8  3  1  0
M  END
>  <Title>  (17) 
idAAAQgen7

$$$$

     RDKit          2D

  8  8  0  0  0  0  0  0  0  0999 V2000
    5.0260   -1.2990    0.0000 N   0  0  0  0  0  0  0  0  0  0  0  0
    3.5260   -1.2990    0.0000 C   0  0  0  0  0  0  0  0  0  0  0  0
    2.7760    0.0000    0.0000 O   0  0  0  0  0  0  0  0  0  0  0  0
    1.2760    0.0000    0.0000 C   0  0  0  0  0  0  0  0  0  0  0  0
    0.3943    1.2135    0.0000 C   0  0  0  0  0  0  0  0  0  0  0  0
   -1.0323    0.7500    0.0000 C   0  0  0  0  0  0  0  0  0  0  0  0
   -1.0323   -0.7500    0.0000 C   0  0  0  0  0  0  0  0  0  0  0  0
    0.3943   -1.2135    0.0000 C   0  0  0  0  0  0  0  0  0  0  0  0
  1  2  2  0
  2  3  1  0
  3  4  1  0
  4  5  2  0
  5  6  1  0
  6  7  2  0
  7  8  1  0
  8  4  1  0
M  END
>  <Title>  (18) 
idAAARgen7

$$$$

     RDKit          2D

  8  8  0  0  0  0  0  0  0  0999 V2000
    3.7500   -1.2990    0.0000 N   0  0  0  0  0  0  0  0  0  0  0  0
    3.0000    0.0000    0.0000 C   0  0  0  0  0  0  0  0  0  0  0  0
    1.5000    0.0000    0.0000 C   0  0  0  0  0  0  0  0  0  0  0  0
    0.7500   -1.2990    0.0000 C   0  0  0  0  0  0  0  0  0  0  0  0
   -0.7500   -1.2990    0.0000 C   0  0  0  0  0  0  0  0  0  0  0  0
   -1.5000    0.0000    0.0000 C   0  0  0  0  0  0  0  0  0  0  0  0
   -0.7500    1.2990    0.0000 C   0  0  0  0  0  0  0  0  0  0  0  0
    0.7500    1.2990    0.0000 C   0  0  0  0  0  0  0  0  0  0  0  0
  1  2  2  0
  2  3  1  0
  3  4  2  0
  4  5  1  0
  5  6  2  0
  6  7  1  0
  7  8  2  0
  8  3  1  0
M  END
>  <Title>  (19) 
idAAASgen7

$$$$

     RDKit          2D

  7  7  0  0  0  0  0  0  0  0999 V2000
    3.5260   -1.2990    0.0000 C   0  0  0  0  0  0  0  0  0  0  0  0
    2.7760    0.0000    0.0000 O   0  0  0  0  0  0  0  0  0  0  0  0
    1.2760    0.0000    0.0000 C   0  0  0  0  0  0  0  0  0  0  0  0
    0.3943    1.2135    0.0000 C   0  0  0  0  0  0  0  0  0  0  0  0
   -1.0323    0.7500    0.0000 C   0  0  0  0  0  0  0  0  0  0  0  0
   -1.0323   -0.7500    0.0000 C   0  0  0  0  0  0  0  0  0  0  0  0
    0.3943   -1.2135    0.0000 C   0  0  0  0  0  0  0  0  0  0  0  0
  1  2  1  0
  2  3  1  0
  3  4  2  0
  4  5  1  0
  5  6  1  0
  6  7  1  0
  7  3  1  0
M  END
>  <Title>  (20) 
idAAATgen7

$$$$

     RDKit          2D

 22 24  0  0  0  0  0  0  0  0999 V2000
    3.0000    0.0000    0.0000 C   0  0  0  0  0  0  0  0  0  0  0  0
    1.5000    0.0000    0.0000 C   0  0  0  0  0  0  0  0  0  0  0  0
    0.7500   -1.2990    0.0000 C   0  0  0  0  0  0  0  0  0  0  0  0
   -0.7500   -1.2990    0.0000 C   0  0  0  0  0  0  0  0  0  0  0  0
   -1.5000    0.0000    0.0000 C   0  0  0  0  0  0  0  0  0  0  0  0
   -3.0000    0.0000    0.0000 N   0  0  0  0  0  0  0  0  0  0  0  0
   -3.8817   -1.2135    0.0000 N   0  0  0  0  0  0  0  0  0  0  0  0
   -5.3083   -0.7500    0.0000 N   0  0  0  0  0  0  0  0  0  0  0  0
   -5.3083    0.7500    0.0000 N   0  0  0  0  0  0  0  0  0  0  0  0
   -3.8817    1.2135    0.0000 C   0  0  0  0  0  0  0  0  0  0  0  0
   -3.4182    2.6401    0.0000 C   0  0  0  0  0  0  0  0  0  0  0  0
   -4.2998    3.8536    0.0000 C   0  0  0  0  0  0  0  0  0  0  0  0
   -5.7998    3.8536    0.0000 C   0  0  0  0  0  0  0  0  0  0  0  0
   -6.5498    5.1527    0.0000 N   0  0  0  0  0  0  0  0  0  0  0  0
   -3.4182    5.0672    0.0000 C   0  0  0  0  0  0  0  0  0  0  0  0
   -4.7172    5.8172    0.0000 C   0  0  0  0  0  0  0  0  0  0  0  0
   -2.8080    6.4375    0.0000 Cl  0  0  0  0  0  0  0  0  0  0  0  0
   -1.9916    4.6036    0.0000 N   0  0  0  0  0  0  0  0  0  0  0  0
   -1.9916    3.1036    0.0000 C   0  0  0  0  0  0  0  0  0  0  0  0
   -0.7780    2.2220    0.0000 O   0  0  0  0  0  0  0  0  0  0  0  0
   -0.7500    1.2990    0.0000 C   0  0  0  0  0  0  0  0  0  0  0  0
    0.7500    1.2990    0.0000 C   0  0  0  0  0  0  0  0  0  0  0  0
  1  2  1  0
  2  3  2  0
  3  4  1  0
  4  5  2  0
  5  6  1  0
  6  7  1  0
  7  8  2  0
  8  9  1  0
  9 10  2  0
 10 11  1  0
 11 12  2  0
 12 13  1  0
 13 14  2  0
 12 15  1  0
 15 16  1  0
 15 17  1  0
 15 18  1  0
 18 19  1  0
 19 20  2  0
  5 21  1  0
 21 22  2  0
 22  2  1  0
 10  6  1  0
 19 11  1  0
M  END
>  <Title>  (21) 
idAAAUgen7

$$$$

     RDKit          2D

 28 31  0  0  0  0  0  0  0  0999 V2000
    3.0000    0.0000    0.0000 C   0  0  0  0  0  0  0  0  0  0  0  0
    1.5000    0.0000    0.0000 C   0  0  0  0  0  0  0  0  0  0  0  0
    0.7500    1.2990    0.0000 C   0  0  0  0  0  0  0  0  0  0  0  0
   -0.7500    1.2990    0.0000 C   0  0  0  0  0  0  0  0  0  0  0  0
   -1.5000    0.0000    0.0000 C   0  0  0  0  0  0  0  0  0  0  0  0
   -3.0000    0.0000    0.0000 C   0  0  0  0  0  0  0  0  0  0  0  0
   -3.8817   -1.2135    0.0000 C   0  0  0  0  0  0  0  0  0  0  0  0
   -5.3083   -0.7500    0.0000 N   0  0  0  0  0  0  0  0  0  0  0  0
   -5.3083    0.7500    0.0000 N   0  0  0  0  0  0  0  0  0  0  0  0
   -3.8817    1.2135    0.0000 N   0  0  0  0  0  0  0  0  0  0  0  0
   -3.4182    2.6401    0.0000 C   0  0  0  0  0  0  0  0  0  0  0  0
   -1.9509    2.9520    0.0000 C   0  0  0  0  0  0  0  0  0  0  0  0
   -1.4874    4.3786    0.0000 C   0  0  0  0  0  0  0  0  0  0  0  0
   -2.4911    5.4933    0.0000 C   0  0  0  0  0  0  0  0  0  0  0  0
   -2.0276    6.9199    0.0000 C   0  0  0  0  0  0  0  0  0  0  0  0
   -2.9093    8.1334    0.0000 N   0  0  0  0  0  0  0  0  0  0  0  0
   -2.0276    9.3469    0.0000 N   0  0  0  0  0  0  0  0  0  0  0  0
   -0.6010    8.8834    0.0000 N   0  0  0  0  0  0  0  0  0  0  0  0
   -0.6010    7.3834    0.0000 N   0  0  0  0  0  0  0  0  0  0  0  0
    0.6125    6.5017    0.0000 C   0  0  0  0  0  0  0  0  0  0  0  0
    1.9829    7.1118    0.0000 C   0  0  0  0  0  0  0  0  0  0  0  0
    3.1964    6.2301    0.0000 C   0  0  0  0  0  0  0  0  0  0  0  0
    4.5667    6.8402    0.0000 N   0  0  0  0  0  0  0  0  0  0  0  0
   -3.9583    5.1814    0.0000 C   0  0  0  0  0  0  0  0  0  0  0  0
   -4.4218    3.7548    0.0000 C   0  0  0  0  0  0  0  0  0  0  0  0
   -0.7500   -1.2990    0.0000 C   0  0  0  0  0  0  0  0  0  0  0  0
   -1.5000   -2.5981    0.0000 O   0  0  0  0  0  0  0  0  0  0  0  0
    0.7500   -1.2990    0.0000 N   0  0  0  0  0  0  0  0  0  0  0  0
  1  2  1  0
  2  3  2  0
  3  4  1  0
  4  5  2  0
  5  6  1  0
  6  7  2  0
  7  8  1  0
  8  9  2  0
  9 10  1  0
 10 11  1  0
 11 12  2  0
 12 13  1  0
 13 14  2  0
 14 15  1  0
 15 16  2  0
 16 17  1  0
 17 18  2  0
 18 19  1  0
 19 20  1  0
 20 21  2  3
 21 22  1  0
 22 23  2  0
 14 24  1  0
 24 25  2  0
  5 26  1  0
 26 27  2  0
 26 28  1  0
 28  2  1  0
 10  6  1  0
 25 11  1  0
 19 15  1  0
M  END
>  <Title>  (22) 
idAAAVgen7

$$$$

     RDKit          2D

 15 16  0  0  0  0  0  0  0  0999 V2000
    0.7500   -7.9952    0.0000 C   0  0  0  0  0  0  0  0  0  0  0  0
    1.5000   -6.6962    0.0000 O   0  0  0  0  0  0  0  0  0  0  0  0
    0.7500   -5.3971    0.0000 C   0  0  0  0  0  0  0  0  0  0  0  0
    0.7500   -3.8971    0.0000 C   0  0  0  0  0  0  0  0  0  0  0  0
    1.5000   -2.5981    0.0000 C   0  0  0  0  0  0  0  0  0  0  0  0
    3.0000   -2.5981    0.0000 O   0  0  0  0  0  0  0  0  0  0  0  0
    0.7500   -1.2990    0.0000 C   0  0  0  0  0  0  0  0  0  0  0  0
    1.5000    0.0000    0.0000 C   0  0  0  0  0  0  0  0  0  0  0  0
    0.7500    1.2990    0.0000 C   0  0  0  0  0  0  0  0  0  0  0  0
   -0.7500    1.2990    0.0000 C   0  0  0  0  0  0  0  0  0  0  0  0
   -1.5000    2.5981    0.0000 C   0  0  0  0  0  0  0  0  0  0  0  0
   -1.5000    0.0000    0.0000 C   0  0  0  0  0  0  0  0  0  0  0  0
   -0.7500   -1.2990    0.0000 C   0  0  0  0  0  0  0  0  0  0  0  0
   -0.5490   -4.6471    0.0000 C   0  0  0  0  0  0  0  0  0  0  0  0
   -2.0490   -4.6471    0.0000 O   0  0  0  0  0  0  0  0  0  0  0  0
  1  2  1  0
  2  3  1  0
  3  4  2  0
  4  5  1  0
  5  6  2  0
  5  7  1  0
  7  8  2  0
  8  9  1  0
  9 10  2  0
 10 11  1  0
 10 12  1  0
 12 13  2  0
  4 14  1  0
 14 15  2  0
 14  3  1  0
 13  7  1  0
M  END
>  <Title>  (23) 
idAAAWgen7

$$$$

     RDKit          2D

 40 44  0  0  0  0  0  0  0  0999 V2000
    3.0000    0.0000    0.0000 C   0  0  0  0  0  0  0  0  0  0  0  0
    1.5000    0.0000    0.0000 C   0  0  0  0  0  0  0  0  0  0  0  0
    0.7500   -1.2990    0.0000 C   0  0  0  0  0  0  0  0  0  0  0  0
   -0.7500   -1.2990    0.0000 C   0  0  0  0  0  0  0  0  0  0  0  0
   -1.5000    0.0000    0.0000 C   0  0  0  0  0  0  0  0  0  0  0  0
   -3.0000    0.0000    0.0000 C   0  0  0  0  0  0  0  0  0  0  0  0
   -3.7500   -1.2990    0.0000 O   0  0  0  0  0  0  0  0  0  0  0  0
   -3.7500    1.2990    0.0000 N   0  0  0  0  0  0  0  0  0  0  0  0
   -5.2500    1.2990    0.0000 C   0  0  0  0  0  0  0  0  0  0  0  0
   -6.3107    2.3597    0.0000 C   0  0  0  0  0  0  0  0  0  0  0  0
   -6.3107    3.8597    0.0000 N   0  0  0  0  0  0  0  0  0  0  0  0
   -7.5242    4.7414    0.0000 N   0  0  0  0  0  0  0  0  0  0  0  0
   -7.0607    6.1680    0.0000 N   0  0  0  0  0  0  0  0  0  0  0  0
   -5.5607    6.1680    0.0000 N   0  0  0  0  0  0  0  0  0  0  0  0
   -5.0971    4.7414    0.0000 C   0  0  0  0  0  0  0  0  0  0  0  0
   -3.6705    4.2779    0.0000 N   0  0  0  0  0  0  0  0  0  0  0  0
   -2.5558    5.2815    0.0000 C   0  0  0  0  0  0  0  0  0  0  0  0
   -2.8677    6.7488    0.0000 O   0  0  0  0  0  0  0  0  0  0  0  0
   -1.1292    4.8180    0.0000 C   0  0  0  0  0  0  0  0  0  0  0  0
   -0.8174    3.3508    0.0000 C   0  0  0  0  0  0  0  0  0  0  0  0
    0.6092    2.8873    0.0000 C   0  0  0  0  0  0  0  0  0  0  0  0
    1.7239    3.8910    0.0000 C   0  0  0  0  0  0  0  0  0  0  0  0
    3.1505    3.4274    0.0000 C   0  0  0  0  0  0  0  0  0  0  0  0
    1.4121    5.3582    0.0000 N   0  0  0  0  0  0  0  0  0  0  0  0
   -0.0145    5.8217    0.0000 C   0  0  0  0  0  0  0  0  0  0  0  0
   -0.3264    7.2889    0.0000 O   0  0  0  0  0  0  0  0  0  0  0  0
   -7.3713    1.2990    0.0000 N   0  0  0  0  0  0  0  0  0  0  0  0
   -6.3107    0.2384    0.0000 N   0  0  0  0  0  0  0  0  0  0  0  0
   -6.3107   -1.2616    0.0000 C   0  0  0  0  0  0  0  0  0  0  0  0
   -7.6097   -2.0116    0.0000 C   0  0  0  0  0  0  0  0  0  0  0  0
   -7.6097   -3.5116    0.0000 C   0  0  0  0  0  0  0  0  0  0  0  0
   -6.3107   -4.2616    0.0000 C   0  0  0  0  0  0  0  0  0  0  0  0
   -6.3107   -5.7616    0.0000 C   0  0  0  0  0  0  0  0  0  0  0  0
   -5.0116   -6.5116    0.0000 O   0  0  0  0  0  0  0  0  0  0  0  0
   -7.6097   -6.5116    0.0000 N   0  0  0  0  0  0  0  0  0  0  0  0
   -7.6097   -8.0116    0.0000 O   0  0  0  0  0  0  0  0  0  0  0  0
   -5.0116   -3.5116    0.0000 C   0  0  0  0  0  0  0  0  0  0  0  0
   -5.0116   -2.0116    0.0000 C   0  0  0  0  0  0  0  0  0  0  0  0
   -0.7500    1.2990    0.0000 C   0  0  0  0  0  0  0  0  0  0  0  0
    0.7500    1.2990    0.0000 C   0  0  0  0  0  0  0  0  0  0  0  0
  1  2  1  0
  2  3  2  0
  3  4  1  0
  4  5  2  0
  5  6  1  0
  6  7  2  0
  6  8  1  0
  8  9  1  0
  9 10  2  0
 10 11  1  0
 11 12  1  0
 12 13  2  0
 13 14  1  0
 14 15  2  0
 15 16  1  0
 16 17  1  0
 17 18  2  0
 17 19  1  0
 19 20  2  0
 20 21  1  0
 21 22  2  0
 22 23  1  0
 22 24  1  0
 24 25  1  0
 25 26  2  0
 10 27  1  0
 27 28  1  0
 28 29  1  0
 29 30  2  0
 30 31  1  0
 31 32  2  0
 32 33  1  0
 33 34  2  0
 33 35  1  0
 35 36  1  0
 32 37  1  0
 37 38  2  0
  5 39  1  0
 39 40  2  0
 40  2  1  0
 28  9  1  0
 38 29  1  0
 15 11  1  0
 25 19  1  0
M  END
>  <Title>  (24) 
idAAAXgen7

$$$$

     RDKit          2D

 30 33  0  0  0  0  0  0  0  0999 V2000
    9.1085   -6.8216    0.0000 C   0  0  0  0  0  0  0  0  0  0  0  0
    8.1048   -5.7068    0.0000 C   0  0  0  0  0  0  0  0  0  0  0  0
    6.6375   -6.0187    0.0000 O   0  0  0  0  0  0  0  0  0  0  0  0
    8.5683   -4.2803    0.0000 O   0  0  0  0  0  0  0  0  0  0  0  0
    7.5646   -3.1655    0.0000 C   0  0  0  0  0  0  0  0  0  0  0  0
    7.8765   -1.6983    0.0000 C   0  0  0  0  0  0  0  0  0  0  0  0
    6.5774   -0.9483    0.0000 C   0  0  0  0  0  0  0  0  0  0  0  0
    5.4627   -1.9520    0.0000 C   0  0  0  0  0  0  0  0  0  0  0  0
    3.9955   -1.6402    0.0000 C   0  0  0  0  0  0  0  0  0  0  0  0
    3.5320   -0.2136    0.0000 O   0  0  0  0  0  0  0  0  0  0  0  0
    2.9918   -2.7549    0.0000 C   0  0  0  0  0  0  0  0  0  0  0  0
    3.3037   -4.2221    0.0000 N   0  0  0  0  0  0  0  0  0  0  0  0
    2.0046   -4.9721    0.0000 N   0  0  0  0  0  0  0  0  0  0  0  0
    0.8899   -3.9684    0.0000 N   0  0  0  0  0  0  0  0  0  0  0  0
    1.5000   -2.5981    0.0000 N   0  0  0  0  0  0  0  0  0  0  0  0
    0.7500   -1.2990    0.0000 C   0  0  0  0  0  0  0  0  0  0  0  0
    1.5000    0.0000    0.0000 C   0  0  0  0  0  0  0  0  0  0  0  0
    0.7500    1.2990    0.0000 C   0  0  0  0  0  0  0  0  0  0  0  0
   -0.7500    1.2990    0.0000 C   0  0  0  0  0  0  0  0  0  0  0  0
   -1.5000    2.5981    0.0000 C   0  0  0  0  0  0  0  0  0  0  0  0
   -2.9918    2.7549    0.0000 C   0  0  0  0  0  0  0  0  0  0  0  0
   -3.3037    4.2221    0.0000 C   0  0  0  0  0  0  0  0  0  0  0  0
   -2.0046    4.9721    0.0000 C   0  0  0  0  0  0  0  0  0  0  0  0
   -1.8478    6.4639    0.0000 N   0  0  0  0  0  0  0  0  0  0  0  0
   -0.8899    3.9684    0.0000 C   0  0  0  0  0  0  0  0  0  0  0  0
    0.5773    4.2803    0.0000 O   0  0  0  0  0  0  0  0  0  0  0  0
   -1.5000    0.0000    0.0000 C   0  0  0  0  0  0  0  0  0  0  0  0
   -0.7500   -1.2990    0.0000 C   0  0  0  0  0  0  0  0  0  0  0  0
    6.0728   -3.3223    0.0000 C   0  0  0  0  0  0  0  0  0  0  0  0
    5.3228   -4.6214    0.0000 C   0  0  0  0  0  0  0  0  0  0  0  0
  1  2  1  0
  2  3  2  0
  2  4  1  0
  4  5  1  0
  5  6  1  0
  6  7  2  0
  7  8  1  0
  8  9  1  0
  9 10  2  0
  9 11  1  0
 11 12  2  0
 12 13  1  0
 13 14  2  0
 14 15  1  0
 15 16  1  0
 16 17  2  0
 17 18  1  0
 18 19  2  0
 19 20  1  0
 20 21  2  0
 21 22  1  0
 22 23  2  0
 23 24  1  0
 23 25  1  0
 25 26  2  0
 19 27  1  0
 27 28  2  0
  8 29  2  0
 29 30  1  0
 29  5  1  0
 15 11  1  0
 28 16  1  0
 25 20  1  0
M  END
>  <Title>  (25) 
idAAAYgen7

$$$$

     RDKit          2D

 20 22  0  0  0  0  0  0  0  0999 V2000
    2.1565    1.9290    0.0000 C   0  0  0  0  0  0  0  0  0  0  0  0
    2.3133    0.4372    0.0000 O   0  0  0  0  0  0  0  0  0  0  0  0
    3.6836   -0.1729    0.0000 C   0  0  0  0  0  0  0  0  0  0  0  0
    3.9955   -1.6402    0.0000 C   0  0  0  0  0  0  0  0  0  0  0  0
    2.9918   -2.7549    0.0000 N   0  0  0  0  0  0  0  0  0  0  0  0
    3.3037   -4.2221    0.0000 N   0  0  0  0  0  0  0  0  0  0  0  0
    2.0046   -4.9721    0.0000 N   0  0  0  0  0  0  0  0  0  0  0  0
    0.8899   -3.9684    0.0000 C   0  0  0  0  0  0  0  0  0  0  0  0
    1.5000   -2.5981    0.0000 C   0  0  0  0  0  0  0  0  0  0  0  0
    0.7500   -1.2990    0.0000 C   0  0  0  0  0  0  0  0  0  0  0  0
    1.5000    0.0000    0.0000 C   0  0  0  0  0  0  0  0  0  0  0  0
    0.7500    1.2990    0.0000 C   0  0  0  0  0  0  0  0  0  0  0  0
   -0.7500    1.2990    0.0000 C   0  0  0  0  0  0  0  0  0  0  0  0
   -1.5000    2.5981    0.0000 C   0  0  0  0  0  0  0  0  0  0  0  0
   -1.5000    0.0000    0.0000 N   0  0  0  0  0  0  0  0  0  0  0  0
   -0.7500   -1.2990    0.0000 C   0  0  0  0  0  0  0  0  0  0  0  0
   -1.5000   -2.5981    0.0000 O   0  0  0  0  0  0  0  0  0  0  0  0
    5.4873   -1.7969    0.0000 C   0  0  0  0  0  0  0  0  0  0  0  0
    6.0974   -0.4266    0.0000 C   0  0  0  0  0  0  0  0  0  0  0  0
    4.9826    0.5771    0.0000 C   0  0  0  0  0  0  0  0  0  0  0  0
  1  2  1  0
  2  3  1  0
  3  4  2  0
  4  5  1  0
  5  6  1  0
  6  7  2  0
  7  8  1  0
  8  9  2  0
  9 10  1  0
 10 11  2  0
 11 12  1  0
 12 13  2  0
 13 14  1  0
 13 15  1  0
 15 16  1  0
 16 17  2  0
  4 18  1  0
 18 19  1  0
 19 20  2  0
 20  3  1  0
  9  5  1  0
 16 10  1  0
M  END
>  <Title>  (26) 
idAAAZgen7

$$$$

     RDKit          2D

 30 33  0  0  0  0  0  0  0  0999 V2000
    9.1085   -6.8216    0.0000 C   0  0  0  0  0  0  0  0  0  0  0  0
    8.1048   -5.7068    0.0000 C   0  0  0  0  0  0  0  0  0  0  0  0
    6.6375   -6.0187    0.0000 O   0  0  0  0  0  0  0  0  0  0  0  0
    8.5683   -4.2803    0.0000 O   0  0  0  0  0  0  0  0  0  0  0  0
    7.5646   -3.1655    0.0000 C   0  0  0  0  0  0  0  0  0  0  0  0
    7.8765   -1.6983    0.0000 C   0  0  0  0  0  0  0  0  0  0  0  0
    6.5774   -0.9483    0.0000 C   0  0  0  0  0  0  0  0  0  0  0  0
    5.4627   -1.9520    0.0000 C   0  0  0  0  0  0  0  0  0  0  0  0
    3.9955   -1.6402    0.0000 C   0  0  0  0  0  0  0  0  0  0  0  0
    3.5320   -0.2136    0.0000 O   0  0  0  0  0  0  0  0  0  0  0  0
    2.9918   -2.7549    0.0000 C   0  0  0  0  0  0  0  0  0  0  0  0
    3.3037   -4.2221    0.0000 N   0  0  0  0  0  0  0  0  0  0  0  0
    2.0046   -4.9721    0.0000 N   0  0  0  0  0  0  0  0  0  0  0  0
    0.8899   -3.9684    0.0000 N   0  0  0  0  0  0  0  0  0  0  0  0
    1.5000   -2.5981    0.0000 N   0  0  0  0  0  0  0  0  0  0  0  0
    0.7500   -1.2990    0.0000 C   0  0  0  0  0  0  0  0  0  0  0  0
    1.5000    0.0000    0.0000 C   0  0  0  0  0  0  0  0  0  0  0  0
    0.7500    1.2990    0.0000 C   0  0  0  0  0  0  0  0  0  0  0  0
   -0.7500    1.2990    0.0000 C   0  0  0  0  0  0  0  0  0  0  0  0
   -1.5000    2.5981    0.0000 C   0  0  0  0  0  0  0  0  0  0  0  0
   -2.9918    2.7549    0.0000 C   0  0  0  0  0  0  0  0  0  0  0  0
   -3.3037    4.2221    0.0000 C   0  0  0  0  0  0  0  0  0  0  0  0
   -2.0046    4.9721    0.0000 C   0  0  0  0  0  0  0  0  0  0  0  0
   -1.8478    6.4639    0.0000 N   0  0  0  0  0  0  0  0  0  0  0  0
   -0.8899    3.9684    0.0000 C   0  0  0  0  0  0  0  0  0  0  0  0
    0.5773    4.2803    0.0000 O   0  0  0  0  0  0  0  0  0  0  0  0
   -1.5000    0.0000    0.0000 C   0  0  0  0  0  0  0  0  0  0  0  0
   -0.7500   -1.2990    0.0000 C   0  0  0  0  0  0  0  0  0  0  0  0
    6.0728   -3.3223    0.0000 C   0  0  0  0  0  0  0  0  0  0  0  0
    5.3228   -4.6214    0.0000 C   0  0  0  0  0  0  0  0  0  0  0  0
  1  2  1  0
  2  3  2  0
  2  4  1  0
  4  5  1  0
  5  6  1  0
  6  7  2  0
  7  8  1  0
  8  9  1  0
  9 10  2  0
  9 11  1  0
 11 12  2  0
 12 13  1  0
 13 14  2  0
 14 15  1  0
 15 16  1  0
 16 17  2  0
 17 18  1  0
 18 19  2  0
 19 20  1  0
 20 21  2  0
 21 22  1  0
 22 23  2  0
 23 24  1  0
 23 25  1  0
 25 26  2  0
 19 27  1  0
 27 28  2  0
  8 29  2  0
 29 30  1  0
 29  5  1  0
 15 11  1  0
 28 16  1  0
 25 20  1  0
M  END
>  <Title>  (27) 
idAABAgen7

$$$$

     RDKit          2D

  7  7  0  0  0  0  0  0  0  0999 V2000
    2.7760    0.0000    0.0000 C   0  0  0  0  0  0  0  0  0  0  0  0
    1.2760    0.0000    0.0000 C   0  0  0  0  0  0  0  0  0  0  0  0
    0.3943    1.2135    0.0000 C   0  0  0  0  0  0  0  0  0  0  0  0
   -1.0323    0.7500    0.0000 C   0  0  0  0  0  0  0  0  0  0  0  0
   -2.2458    1.6317    0.0000 C   0  0  0  0  0  0  0  0  0  0  0  0
   -1.0323   -0.7500    0.0000 N   0  0  0  0  0  0  0  0  0  0  0  0
    0.3943   -1.2135    0.0000 N   0  0  0  0  0  0  0  0  0  0  0  0
  1  2  1  0
  2  3  2  0
  3  4  1  0
  4  5  1  0
  4  6  1  0
  6  7  2  0
  7  2  1  0
M  END
>  <Title>  (28) 
idAABBgen7

$$$$

     RDKit          2D

  7  7  0  0  0  0  0  0  0  0999 V2000
    3.5260   -1.2990    0.0000 C   0  0  0  0  0  0  0  0  0  0  0  0
    2.7760    0.0000    0.0000 O   0  0  0  0  0  0  0  0  0  0  0  0
    1.2760    0.0000    0.0000 C   0  0  0  0  0  0  0  0  0  0  0  0
    0.3943    1.2135    0.0000 C   0  0  0  0  0  0  0  0  0  0  0  0
   -1.0323    0.7500    0.0000 C   0  0  0  0  0  0  0  0  0  0  0  0
   -1.0323   -0.7500    0.0000 C   0  0  0  0  0  0  0  0  0  0  0  0
    0.3943   -1.2135    0.0000 C   0  0  0  0  0  0  0  0  0  0  0  0
  1  2  1  0
  2  3  1  0
  3  4  2  0
  4  5  1  0
  5  6  2  0
  6  7  1  0
  7  3  1  0
M  END
>  <Title>  (29) 
idAABCgen7

$$$$

     RDKit          2D

  7  7  0  0  0  0  0  0  0  0999 V2000
    3.0000    0.0000    0.0000 C   0  0  0  0  0  0  0  0  0  0  0  0
    1.5000    0.0000    0.0000 C   0  0  0  0  0  0  0  0  0  0  0  0
    0.7500   -1.2990    0.0000 C   0  0  0  0  0  0  0  0  0  0  0  0
   -0.7500   -1.2990    0.0000 C   0  0  0  0  0  0  0  0  0  0  0  0
   -1.5000    0.0000    0.0000 C   0  0  0  0  0  0  0  0  0  0  0  0
   -0.7500    1.2990    0.0000 C   0  0  0  0  0  0  0  0  0  0  0  0
    0.7500    1.2990    0.0000 N   0  0  0  0  0  0  0  0  0  0  0  0
  1  2  1  0
  2  3  2  0
  3  4  1  0
  4  5  1  0
  5  6  1  0
  6  7  2  0
  7  2  1  0
M  END
>  <Title>  (30) 
idAABDgen7

$$$$

     RDKit          2D

  9  9  0  0  0  0  0  0  0  0999 V2000
    3.5260   -1.2990    0.0000 C   0  0  0  0  0  0  0  0  0  0  0  0
    2.7760    0.0000    0.0000 O   0  0  0  0  0  0  0  0  0  0  0  0
    1.2760    0.0000    0.0000 C   0  0  0  0  0  0  0  0  0  0  0  0
    0.3943    1.2135    0.0000 C   0  0  0  0  0  0  0  0  0  0  0  0
   -1.0323    0.7500    0.0000 C   0  0  0  0  0  0  0  0  0  0  0  0
   -1.0323   -0.7500    0.0000 C   0  0  0  0  0  0  0  0  0  0  0  0
   -2.2458   -1.6317    0.0000 C   0  0  0  0  0  0  0  0  0  0  0  0
   -3.6161   -1.0216    0.0000 N   0  0  0  0  0  0  0  0  0  0  0  0
    0.3943   -1.2135    0.0000 C   0  0  0  0  0  0  0  0  0  0  0  0
  1  2  1  0
  2  3  1  0
  3  4  2  0
  4  5  1  0
  5  6  1  0
  6  7  1  0
  7  8  2  0
  6  9  2  0
  9  3  1  0
M  END
>  <Title>  (31) 
idAABEgen7

$$$$

     RDKit          2D

  7  7  0  0  0  0  0  0  0  0999 V2000
    2.7760    0.0000    0.0000 C   0  0  0  0  0  0  0  0  0  0  0  0
    1.2760    0.0000    0.0000 C   0  0  0  0  0  0  0  0  0  0  0  0
    0.3943    1.2135    0.0000 C   0  0  0  0  0  0  0  0  0  0  0  0
   -1.0323    0.7500    0.0000 C   0  0  0  0  0  0  0  0  0  0  0  0
   -1.0323   -0.7500    0.0000 C   0  0  0  0  0  0  0  0  0  0  0  0
   -2.2458   -1.6317    0.0000 C   0  0  0  0  0  0  0  0  0  0  0  0
    0.3943   -1.2135    0.0000 N   0  0  0  0  0  0  0  0  0  0  0  0
  1  2  1  0
  2  3  2  0
  3  4  1  0
  4  5  1  0
  5  6  1  0
  5  7  2  0
  7  2  1  0
M  END
>  <Title>  (32) 
idAABFgen7

$$$$

     RDKit          2D

 44 49  0  0  0  0  0  0  0  0999 V2000
    3.7500   -1.2990    0.0000 C   0  0  0  0  0  0  0  0  0  0  0  0
    3.0000    0.0000    0.0000 O   0  0  0  0  0  0  0  0  0  0  0  0
    1.5000    0.0000    0.0000 C   0  0  0  0  0  0  0  0  0  0  0  0
    0.7500   -1.2990    0.0000 C   0  0  0  0  0  0  0  0  0  0  0  0
   -0.7500   -1.2990    0.0000 C   0  0  0  0  0  0  0  0  0  0  0  0
   -1.5000    0.0000    0.0000 C   0  0  0  0  0  0  0  0  0  0  0  0
   -3.0000    0.0000    0.0000 C   0  0  0  0  0  0  0  0  0  0  0  0
   -3.7500   -1.2990    0.0000 O   0  0  0  0  0  0  0  0  0  0  0  0
   -3.7500    1.2990    0.0000 N   0  0  0  0  0  0  0  0  0  0  0  0
   -5.2500    1.2990    0.0000 C   0  0  0  0  0  0  0  0  0  0  0  0
   -6.1317    0.0855    0.0000 N   0  0  0  0  0  0  0  0  0  0  0  0
   -7.5583    0.5490    0.0000 N   0  0  0  0  0  0  0  0  0  0  0  0
   -7.5583    2.0490    0.0000 N   0  0  0  0  0  0  0  0  0  0  0  0
   -6.1317    2.5126    0.0000 N   0  0  0  0  0  0  0  0  0  0  0  0
   -5.6682    3.9391    0.0000 C   0  0  0  0  0  0  0  0  0  0  0  0
   -4.2009    4.2510    0.0000 C   0  0  0  0  0  0  0  0  0  0  0  0
   -3.7374    5.6776    0.0000 C   0  0  0  0  0  0  0  0  0  0  0  0
   -4.7411    6.7923    0.0000 C   0  0  0  0  0  0  0  0  0  0  0  0
   -4.2776    8.2189    0.0000 C   0  0  0  0  0  0  0  0  0  0  0  0
   -5.1593    9.4324    0.0000 N   0  0  0  0  0  0  0  0  0  0  0  0
   -4.2776   10.6460    0.0000 N   0  0  0  0  0  0  0  0  0  0  0  0
   -2.8510   10.1824    0.0000 N   0  0  0  0  0  0  0  0  0  0  0  0
   -2.8510    8.6824    0.0000 N   0  0  0  0  0  0  0  0  0  0  0  0
   -1.6375    7.8008    0.0000 C   0  0  0  0  0  0  0  0  0  0  0  0
   -0.2109    8.2643    0.0000 C   0  0  0  0  0  0  0  0  0  0  0  0
    0.6708    7.0508    0.0000 C   0  0  0  0  0  0  0  0  0  0  0  0
   -0.2109    5.8372    0.0000 C   0  0  0  0  0  0  0  0  0  0  0  0
    0.2526    4.4106    0.0000 C   0  0  0  0  0  0  0  0  0  0  0  0
   -1.6375    6.3008    0.0000 N   0  0  0  0  0  0  0  0  0  0  0  0
   -6.2083    6.4805    0.0000 C   0  0  0  0  0  0  0  0  0  0  0  0
   -6.6718    5.0539    0.0000 C   0  0  0  0  0  0  0  0  0  0  0  0
   -8.1391    4.7420    0.0000 C   0  0  0  0  0  0  0  0  0  0  0  0
   -9.1428    5.8567    0.0000 C   0  0  0  0  0  0  0  0  0  0  0  0
  -10.6100    5.5448    0.0000 C   0  0  0  0  0  0  0  0  0  0  0  0
  -11.0735    4.1183    0.0000 C   0  0  0  0  0  0  0  0  0  0  0  0
  -12.5407    3.8064    0.0000 C   0  0  0  0  0  0  0  0  0  0  0  0
  -13.0043    2.3798    0.0000 O   0  0  0  0  0  0  0  0  0  0  0  0
  -13.5444    4.9211    0.0000 N   0  0  0  0  0  0  0  0  0  0  0  0
  -15.0117    4.6092    0.0000 O   0  0  0  0  0  0  0  0  0  0  0  0
  -10.0698    3.0035    0.0000 C   0  0  0  0  0  0  0  0  0  0  0  0
   -8.6026    3.3154    0.0000 C   0  0  0  0  0  0  0  0  0  0  0  0
   -0.7500    1.2990    0.0000 C   0  0  0  0  0  0  0  0  0  0  0  0
   -1.5000    2.5981    0.0000 O   0  0  0  0  0  0  0  0  0  0  0  0
    0.7500    1.2990    0.0000 N   0  0  0  0  0  0  0  0  0  0  0  0
  1  2  1  0
  2  3  1  0
  3  4  2  0
  4  5  1  0
  5  6  2  0
  6  7  1  0
  7  8  2  0
  7  9  1  0
  9 10  1  0
 10 11  2  0
 11 12  1  0
 12 13  2  0
 13 14  1  0
 14 15  1  0
 15 16  2  0
 16 17  1  0
 17 18  2  0
 18 19  1  0
 19 20  2  0
 20 21  1  0
 21 22  2  0
 22 23  1  0
 23 24  1  0
 24 25  2  0
 25 26  1  0
 26 27  2  0
 27 28  1  0
 27 29  1  0
 18 30  1  0
 30 31  2  0
 31 32  1  0
 32 33  2  0
 33 34  1  0
 34 35  2  0
 35 36  1  0
 36 37  2  0
 36 38  1  0
 38 39  1  0
 35 40  1  0
 40 41  1  0
  6 42  1  0
 42 43  2  0
 42 44  1  0
 44  3  1  0
 14 10  1  0
 31 15  1  0
 41 32  1  0
 23 19  1  0
 29 24  1  0
M  END
>  <Title>  (33) 
idAABGgen7

$$$$

     RDKit          2D

  7  7  0  0  0  0  0  0  0  0999 V2000
    3.0000    0.0000    0.0000 C   0  0  0  0  0  0  0  0  0  0  0  0
    1.5000    0.0000    0.0000 C   0  0  0  0  0  0  0  0  0  0  0  0
    0.7500   -1.2990    0.0000 C   0  0  0  0  0  0  0  0  0  0  0  0
   -0.7500   -1.2990    0.0000 C   0  0  0  0  0  0  0  0  0  0  0  0
   -1.5000    0.0000    0.0000 C   0  0  0  0  0  0  0  0  0  0  0  0
   -0.7500    1.2990    0.0000 C   0  0  0  0  0  0  0  0  0  0  0  0
    0.7500    1.2990    0.0000 N   0  0  0  0  0  0  0  0  0  0  0  0
  1  2  1  0
  2  3  2  0
  3  4  1  0
  4  5  1  0
  5  6  1  0
  6  7  2  0
  7  2  1  0
M  END
>  <Title>  (34) 
idAABHgen7

$$$$

     RDKit          2D

 13 14  0  0  0  0  0  0  0  0999 V2000
    5.0260    1.2990    0.0000 C   0  0  0  0  0  0  0  0  0  0  0  0
    3.5260    1.2990    0.0000 C   0  0  0  0  0  0  0  0  0  0  0  0
    2.7760    0.0000    0.0000 C   0  0  0  0  0  0  0  0  0  0  0  0
    1.2760    0.0000    0.0000 N   0  0  0  0  0  0  0  0  0  0  0  0
    0.3943    1.2135    0.0000 N   0  0  0  0  0  0  0  0  0  0  0  0
   -1.0323    0.7500    0.0000 N   0  0  0  0  0  0  0  0  0  0  0  0
   -1.0323   -0.7500    0.0000 N   0  0  0  0  0  0  0  0  0  0  0  0
    0.3943   -1.2135    0.0000 C   0  0  0  0  0  0  0  0  0  0  0  0
    0.8578   -2.6401    0.0000 C   0  0  0  0  0  0  0  0  0  0  0  0
    2.2844   -3.1036    0.0000 C   0  0  0  0  0  0  0  0  0  0  0  0
    2.2844   -4.6036    0.0000 C   0  0  0  0  0  0  0  0  0  0  0  0
    0.8578   -5.0672    0.0000 C   0  0  0  0  0  0  0  0  0  0  0  0
   -0.0239   -3.8536    0.0000 C   0  0  0  0  0  0  0  0  0  0  0  0
  1  2  1  0
  2  3  2  3
  3  4  1  0
  4  5  1  0
  5  6  2  0
  6  7  1  0
  7  8  2  0
  8  9  1  0
  9 10  2  0
 10 11  1  0
 11 12  2  0
 12 13  1  0
  8  4  1  0
 13  9  1  0
M  END
>  <Title>  (35) 
idAABIgen7

$$$$

     RDKit          2D

 30 33  0  0  0  0  0  0  0  0999 V2000
    3.0000    0.0000    0.0000 C   0  0  0  0  0  0  0  0  0  0  0  0
    1.5000    0.0000    0.0000 C   0  0  0  0  0  0  0  0  0  0  0  0
    0.7500   -1.2990    0.0000 C   0  0  0  0  0  0  0  0  0  0  0  0
   -0.7500   -1.2990    0.0000 C   0  0  0  0  0  0  0  0  0  0  0  0
   -1.5000    0.0000    0.0000 C   0  0  0  0  0  0  0  0  0  0  0  0
   -3.0000    0.0000    0.0000 C   0  0  0  0  0  0  0  0  0  0  0  0
   -3.7500   -1.2990    0.0000 O   0  0  0  0  0  0  0  0  0  0  0  0
   -3.7500    1.2990    0.0000 N   0  0  0  0  0  0  0  0  0  0  0  0
   -5.2500    1.2990    0.0000 C   0  0  0  0  0  0  0  0  0  0  0  0
   -6.3107    2.3597    0.0000 C   0  0  0  0  0  0  0  0  0  0  0  0
   -6.3107    3.8597    0.0000 N   0  0  0  0  0  0  0  0  0  0  0  0
   -7.5242    4.7414    0.0000 N   0  0  0  0  0  0  0  0  0  0  0  0
   -7.0607    6.1680    0.0000 N   0  0  0  0  0  0  0  0  0  0  0  0
   -5.5607    6.1680    0.0000 N   0  0  0  0  0  0  0  0  0  0  0  0
   -5.0971    4.7414    0.0000 C   0  0  0  0  0  0  0  0  0  0  0  0
   -3.6705    4.2779    0.0000 C   0  0  0  0  0  0  0  0  0  0  0  0
   -7.3713    1.2990    0.0000 N   0  0  0  0  0  0  0  0  0  0  0  0
   -6.3107    0.2384    0.0000 N   0  0  0  0  0  0  0  0  0  0  0  0
   -6.3107   -1.2616    0.0000 C   0  0  0  0  0  0  0  0  0  0  0  0
   -7.6097   -2.0116    0.0000 C   0  0  0  0  0  0  0  0  0  0  0  0
   -7.6097   -3.5116    0.0000 C   0  0  0  0  0  0  0  0  0  0  0  0
   -6.3107   -4.2616    0.0000 C   0  0  0  0  0  0  0  0  0  0  0  0
   -6.3107   -5.7616    0.0000 C   0  0  0  0  0  0  0  0  0  0  0  0
   -5.0116   -6.5116    0.0000 O   0  0  0  0  0  0  0  0  0  0  0  0
   -7.6097   -6.5116    0.0000 N   0  0  0  0  0  0  0  0  0  0  0  0
   -7.6097   -8.0116    0.0000 O   0  0  0  0  0  0  0  0  0  0  0  0
   -5.0116   -3.5116    0.0000 C   0  0  0  0  0  0  0  0  0  0  0  0
   -5.0116   -2.0116    0.0000 C   0  0  0  0  0  0  0  0  0  0  0  0
   -0.7500    1.2990    0.0000 C   0  0  0  0  0  0  0  0  0  0  0  0
    0.7500    1.2990    0.0000 C   0  0  0  0  0  0  0  0  0  0  0  0
  1  2  1  0
  2  3  2  0
  3  4  1  0
  4  5  2  0
  5  6  1  0
  6  7  2  0
  6  8  1  0
  8  9  1  0
  9 10  2  0
 10 11  1  0
 11 12  1  0
 12 13  2  0
 13 14  1  0
 14 15  2  0
 15 16  1  0
 10 17  1  0
 17 18  1  0
 18 19  1  0
 19 20  2  0
 20 21  1  0
 21 22  2  0
 22 23  1  0
 23 24  2  0
 23 25  1  0
 25 26  1  0
 22 27  1  0
 27 28  2  0
  5 29  1  0
 29 30  2  0
 30  2  1  0
 18  9  1  0
 28 19  1  0
 15 11  1  0
M  END
>  <Title>  (36) 
idAABJgen7

$$$$

     RDKit          2D

  7  7  0  0  0  0  0  0  0  0999 V2000
    3.5260   -1.2990    0.0000 N   0  0  0  0  0  0  0  0  0  0  0  0
    2.7760    0.0000    0.0000 C   0  0  0  0  0  0  0  0  0  0  0  0
    1.2760    0.0000    0.0000 C   0  0  0  0  0  0  0  0  0  0  0  0
    0.3943    1.2135    0.0000 C   0  0  0  0  0  0  0  0  0  0  0  0
   -1.0323    0.7500    0.0000 C   0  0  0  0  0  0  0  0  0  0  0  0
   -1.0323   -0.7500    0.0000 C   0  0  0  0  0  0  0  0  0  0  0  0
    0.3943   -1.2135    0.0000 C   0  0  0  0  0  0  0  0  0  0  0  0
  1  2  2  0
  2  3  1  0
  3  4  2  0
  4  5  1  0
  5  6  2  0
  6  7  1  0
  7  3  1  0
M  END
>  <Title>  (37) 
idAABKgen7

$$$$

     RDKit          2D

  8  8  0  0  0  0  0  0  0  0999 V2000
    4.5000    0.0000    0.0000 N   0  0  0  0  0  0  0  0  0  0  0  0
    3.0000    0.0000    0.0000 C   0  0  0  0  0  0  0  0  0  0  0  0
    1.5000    0.0000    0.0000 C   0  0  0  0  0  0  0  0  0  0  0  0
    0.7500   -1.2990    0.0000 C   0  0  0  0  0  0  0  0  0  0  0  0
   -0.7500   -1.2990    0.0000 C   0  0  0  0  0  0  0  0  0  0  0  0
   -1.5000    0.0000    0.0000 C   0  0  0  0  0  0  0  0  0  0  0  0
   -0.7500    1.2990    0.0000 C   0  0  0  0  0  0  0  0  0  0  0  0
    0.7500    1.2990    0.0000 C   0  0  0  0  0  0  0  0  0  0  0  0
  1  2  3  0
  2  3  1  0
  3  4  2  0
  4  5  1  0
  5  6  2  0
  6  7  1  0
  7  8  1  0
  8  3  1  0
M  END
>  <Title>  (38) 
idAABLgen7

$$$$

     RDKit          2D

 24 26  0  0  0  0  0  0  0  0999 V2000
    5.2500   -1.2990    0.0000 C   0  0  0  0  0  0  0  0  0  0  0  0
    3.7500   -1.2990    0.0000 C   0  0  0  0  0  0  0  0  0  0  0  0
    3.0000   -2.5981    0.0000 O   0  0  0  0  0  0  0  0  0  0  0  0
    3.0000    0.0000    0.0000 O   0  0  0  0  0  0  0  0  0  0  0  0
    1.5000    0.0000    0.0000 C   0  0  0  0  0  0  0  0  0  0  0  0
    0.7500   -1.2990    0.0000 C   0  0  0  0  0  0  0  0  0  0  0  0
   -0.7500   -1.2990    0.0000 C   0  0  0  0  0  0  0  0  0  0  0  0
   -1.5000    0.0000    0.0000 C   0  0  0  0  0  0  0  0  0  0  0  0
   -3.0000    0.0000    0.0000 C   0  0  0  0  0  0  0  0  0  0  0  0
   -3.7500   -1.2990    0.0000 O   0  0  0  0  0  0  0  0  0  0  0  0
   -3.7500    1.2990    0.0000 C   0  0  0  0  0  0  0  0  0  0  0  0
   -3.1399    2.6694    0.0000 N   0  0  0  0  0  0  0  0  0  0  0  0
   -4.2546    3.6731    0.0000 N   0  0  0  0  0  0  0  0  0  0  0  0
   -5.5537    2.9231    0.0000 N   0  0  0  0  0  0  0  0  0  0  0  0
   -5.2418    1.4558    0.0000 N   0  0  0  0  0  0  0  0  0  0  0  0
   -6.2455    0.3411    0.0000 C   0  0  0  0  0  0  0  0  0  0  0  0
   -5.7820   -1.0855    0.0000 C   0  0  0  0  0  0  0  0  0  0  0  0
   -6.7856   -2.2002    0.0000 C   0  0  0  0  0  0  0  0  0  0  0  0
   -8.2529   -1.8883    0.0000 C   0  0  0  0  0  0  0  0  0  0  0  0
   -9.2566   -3.0030    0.0000 O   0  0  0  0  0  0  0  0  0  0  0  0
   -8.7164   -0.4617    0.0000 C   0  0  0  0  0  0  0  0  0  0  0  0
   -7.7127    0.6530    0.0000 C   0  0  0  0  0  0  0  0  0  0  0  0
   -0.7500    1.2990    0.0000 C   0  0  0  0  0  0  0  0  0  0  0  0
    0.7500    1.2990    0.0000 C   0  0  0  0  0  0  0  0  0  0  0  0
  1  2  1  0
  2  3  2  0
  2  4  1  0
  4  5  1  0
  5  6  2  0
  6  7  1  0
  7  8  2  0
  8  9  1  0
  9 10  2  0
  9 11  1  0
 11 12  2  0
 12 13  1  0
 13 14  2  0
 14 15  1  0
 15 16  1  0
 16 17  2  0
 17 18  1  0
 18 19  2  0
 19 20  1  0
 19 21  1  0
 21 22  2  0
  8 23  1  0
 23 24  2  0
 24  5  1  0
 15 11  1  0
 22 16  1  0
M  END
>  <Title>  (39) 
idAABMgen7

$$$$

     RDKit          2D

 19 21  0  0  0  0  0  0  0  0999 V2000
    3.0000    0.0000    0.0000 C   0  0  0  0  0  0  0  0  0  0  0  0
    1.5000    0.0000    0.0000 C   0  0  0  0  0  0  0  0  0  0  0  0
    0.7500    1.2990    0.0000 C   0  0  0  0  0  0  0  0  0  0  0  0
   -0.7500    1.2990    0.0000 C   0  0  0  0  0  0  0  0  0  0  0  0
   -1.5000    0.0000    0.0000 C   0  0  0  0  0  0  0  0  0  0  0  0
   -3.0000    0.0000    0.0000 C   0  0  0  0  0  0  0  0  0  0  0  0
   -3.8817   -1.2135    0.0000 N   0  0  0  0  0  0  0  0  0  0  0  0
   -5.3083   -0.7500    0.0000 N   0  0  0  0  0  0  0  0  0  0  0  0
   -5.3083    0.7500    0.0000 N   0  0  0  0  0  0  0  0  0  0  0  0
   -3.8817    1.2135    0.0000 N   0  0  0  0  0  0  0  0  0  0  0  0
   -3.4182    2.6401    0.0000 C   0  0  0  0  0  0  0  0  0  0  0  0
   -1.9509    2.9520    0.0000 C   0  0  0  0  0  0  0  0  0  0  0  0
   -1.4874    4.3786    0.0000 C   0  0  0  0  0  0  0  0  0  0  0  0
   -2.4911    5.4933    0.0000 C   0  0  0  0  0  0  0  0  0  0  0  0
   -3.9583    5.1814    0.0000 C   0  0  0  0  0  0  0  0  0  0  0  0
   -4.4218    3.7548    0.0000 C   0  0  0  0  0  0  0  0  0  0  0  0
   -0.7500   -1.2990    0.0000 C   0  0  0  0  0  0  0  0  0  0  0  0
   -1.5000   -2.5981    0.0000 O   0  0  0  0  0  0  0  0  0  0  0  0
    0.7500   -1.2990    0.0000 N   0  0  0  0  0  0  0  0  0  0  0  0
  1  2  1  0
  2  3  2  0
  3  4  1  0
  4  5  2  0
  5  6  1  0
  6  7  2  0
  7  8  1  0
  8  9  2  0
  9 10  1  0
 10 11  1  0
 11 12  2  0
 12 13  1  0
 13 14  2  0
 14 15  1  0
 15 16  1  0
  5 17  1  0
 17 18  2  0
 17 19  1  0
 19  2  1  0
 10  6  1  0
 16 11  1  0
M  END
>  <Title>  (40) 
idAABNgen7

$$$$

     RDKit          2D

 40 45  0  0  0  0  0  0  0  0999 V2000
    3.0000    0.0000    0.0000 C   0  0  0  0  0  0  0  0  0  0  0  0
    1.5000    0.0000    0.0000 C   0  0  0  0  0  0  0  0  0  0  0  0
    0.7500   -1.2990    0.0000 C   0  0  0  0  0  0  0  0  0  0  0  0
   -0.7500   -1.2990    0.0000 C   0  0  0  0  0  0  0  0  0  0  0  0
   -1.5000    0.0000    0.0000 C   0  0  0  0  0  0  0  0  0  0  0  0
   -3.0000    0.0000    0.0000 C   0  0  0  0  0  0  0  0  0  0  0  0
   -3.7500   -1.2990    0.0000 O   0  0  0  0  0  0  0  0  0  0  0  0
   -3.7500    1.2990    0.0000 N   0  0  0  0  0  0  0  0  0  0  0  0
   -5.2500    1.2990    0.0000 C   0  0  0  0  0  0  0  0  0  0  0  0
   -6.0000    2.5981    0.0000 C   0  0  0  0  0  0  0  0  0  0  0  0
   -7.5000    2.5981    0.0000 C   0  0  0  0  0  0  0  0  0  0  0  0
   -8.2500    1.2990    0.0000 C   0  0  0  0  0  0  0  0  0  0  0  0
   -9.7500    1.2990    0.0000 C   0  0  0  0  0  0  0  0  0  0  0  0
  -10.6317    0.0855    0.0000 C   0  0  0  0  0  0  0  0  0  0  0  0
  -12.0583    0.5490    0.0000 N   0  0  0  0  0  0  0  0  0  0  0  0
  -12.0583    2.0490    0.0000 N   0  0  0  0  0  0  0  0  0  0  0  0
  -10.6317    2.5126    0.0000 N   0  0  0  0  0  0  0  0  0  0  0  0
  -10.1682    3.9391    0.0000 C   0  0  0  0  0  0  0  0  0  0  0  0
  -11.0498    5.1527    0.0000 C   0  0  0  0  0  0  0  0  0  0  0  0
  -10.1682    6.3662    0.0000 C   0  0  0  0  0  0  0  0  0  0  0  0
   -8.7416    5.9027    0.0000 C   0  0  0  0  0  0  0  0  0  0  0  0
   -7.5280    6.7844    0.0000 C   0  0  0  0  0  0  0  0  0  0  0  0
   -6.1015    6.3208    0.0000 N   0  0  0  0  0  0  0  0  0  0  0  0
   -5.2198    7.5344    0.0000 N   0  0  0  0  0  0  0  0  0  0  0  0
   -6.1015    8.7479    0.0000 N   0  0  0  0  0  0  0  0  0  0  0  0
   -7.5280    8.2844    0.0000 N   0  0  0  0  0  0  0  0  0  0  0  0
   -8.7416    9.1660    0.0000 C   0  0  0  0  0  0  0  0  0  0  0  0
  -10.1119    8.5559    0.0000 C   0  0  0  0  0  0  0  0  0  0  0  0
  -11.3254    9.4376    0.0000 C   0  0  0  0  0  0  0  0  0  0  0  0
  -11.1686   10.9294    0.0000 C   0  0  0  0  0  0  0  0  0  0  0  0
   -9.7983   11.5395    0.0000 C   0  0  0  0  0  0  0  0  0  0  0  0
   -8.5848   10.6578    0.0000 C   0  0  0  0  0  0  0  0  0  0  0  0
   -8.7416    4.4027    0.0000 C   0  0  0  0  0  0  0  0  0  0  0  0
   -7.5280    3.5210    0.0000 O   0  0  0  0  0  0  0  0  0  0  0  0
   -7.5000    0.0000    0.0000 C   0  0  0  0  0  0  0  0  0  0  0  0
   -8.2500   -1.2990    0.0000 O   0  0  0  0  0  0  0  0  0  0  0  0
   -6.0000    0.0000    0.0000 N   0  0  0  0  0  0  0  0  0  0  0  0
   -0.7500    1.2990    0.0000 C   0  0  0  0  0  0  0  0  0  0  0  0
   -1.5000    2.5981    0.0000 O   0  0  0  0  0  0  0  0  0  0  0  0
    0.7500    1.2990    0.0000 N   0  0  0  0  0  0  0  0  0  0  0  0
  1  2  1  0
  2  3  2  0
  3  4  1  0
  4  5  2  0
  5  6  1  0
  6  7  2  0
  6  8  1  0
  8  9  1  0
  9 10  2  0
 10 11  1  0
 11 12  2  0
 12 13  1  0
 13 14  2  0
 14 15  1  0
 15 16  2  0
 16 17  1  0
 17 18  1  0
 18 19  2  0
 19 20  1  0
 20 21  2  0
 21 22  1  0
 22 23  2  0
 23 24  1  0
 24 25  2  0
 25 26  1  0
 26 27  1  0
 27 28  2  0
 28 29  1  0
 29 30  2  0
 30 31  1  0
 31 32  2  0
 21 33  1  0
 33 34  2  0
 12 35  1  0
 35 36  2  0
 35 37  1  0
  5 38  1  0
 38 39  2  0
 38 40  1  0
 40  2  1  0
 37  9  1  0
 17 13  1  0
 33 18  1  0
 26 22  1  0
 32 27  1  0
M  END
>  <Title>  (41) 
idAABOgen7

$$$$

     RDKit          2D

 19 21  0  0  0  0  0  0  0  0999 V2000
    7.5646   -0.1148    0.0000 C   0  0  0  0  0  0  0  0  0  0  0  0
    6.0974   -0.4266    0.0000 C   0  0  0  0  0  0  0  0  0  0  0  0
    4.9826    0.5771    0.0000 C   0  0  0  0  0  0  0  0  0  0  0  0
    3.6836   -0.1729    0.0000 C   0  0  0  0  0  0  0  0  0  0  0  0
    3.9955   -1.6402    0.0000 C   0  0  0  0  0  0  0  0  0  0  0  0
    2.9918   -2.7549    0.0000 N   0  0  0  0  0  0  0  0  0  0  0  0
    3.3037   -4.2221    0.0000 N   0  0  0  0  0  0  0  0  0  0  0  0
    2.0046   -4.9721    0.0000 N   0  0  0  0  0  0  0  0  0  0  0  0
    0.8899   -3.9684    0.0000 N   0  0  0  0  0  0  0  0  0  0  0  0
    1.5000   -2.5981    0.0000 C   0  0  0  0  0  0  0  0  0  0  0  0
    0.7500   -1.2990    0.0000 C   0  0  0  0  0  0  0  0  0  0  0  0
    1.5000    0.0000    0.0000 C   0  0  0  0  0  0  0  0  0  0  0  0
    0.7500    1.2990    0.0000 C   0  0  0  0  0  0  0  0  0  0  0  0
   -0.7500    1.2990    0.0000 C   0  0  0  0  0  0  0  0  0  0  0  0
   -1.5000    2.5981    0.0000 C   0  0  0  0  0  0  0  0  0  0  0  0
   -1.5000    0.0000    0.0000 N   0  0  0  0  0  0  0  0  0  0  0  0
   -0.7500   -1.2990    0.0000 C   0  0  0  0  0  0  0  0  0  0  0  0
   -1.5000   -2.5981    0.0000 O   0  0  0  0  0  0  0  0  0  0  0  0
    5.4873   -1.7969    0.0000 C   0  0  0  0  0  0  0  0  0  0  0  0
  1  2  1  0
  2  3  2  0
  3  4  1  0
  4  5  2  0
  5  6  1  0
  6  7  1  0
  7  8  2  0
  8  9  1  0
  9 10  2  0
 10 11  1  0
 11 12  2  0
 12 13  1  0
 13 14  2  0
 14 15  1  0
 14 16  1  0
 16 17  1  0
 17 18  2  0
  5 19  1  0
 19  2  1  0
 10  6  1  0
 17 11  1  0
M  END
>  <Title>  (42) 
idAABPgen7

$$$$

     RDKit          2D

 19 21  0  0  0  0  0  0  0  0999 V2000
    3.0000    0.0000    0.0000 C   0  0  0  0  0  0  0  0  0  0  0  0
    1.5000    0.0000    0.0000 C   0  0  0  0  0  0  0  0  0  0  0  0
    0.7500    1.2990    0.0000 C   0  0  0  0  0  0  0  0  0  0  0  0
   -0.7500    1.2990    0.0000 C   0  0  0  0  0  0  0  0  0  0  0  0
   -1.5000    0.0000    0.0000 C   0  0  0  0  0  0  0  0  0  0  0  0
   -3.0000    0.0000    0.0000 C   0  0  0  0  0  0  0  0  0  0  0  0
   -3.8817   -1.2135    0.0000 N   0  0  0  0  0  0  0  0  0  0  0  0
   -5.3083   -0.7500    0.0000 N   0  0  0  0  0  0  0  0  0  0  0  0
   -5.3083    0.7500    0.0000 N   0  0  0  0  0  0  0  0  0  0  0  0
   -3.8817    1.2135    0.0000 N   0  0  0  0  0  0  0  0  0  0  0  0
   -3.4182    2.6401    0.0000 C   0  0  0  0  0  0  0  0  0  0  0  0
   -1.9509    2.9520    0.0000 C   0  0  0  0  0  0  0  0  0  0  0  0
   -1.4874    4.3786    0.0000 C   0  0  0  0  0  0  0  0  0  0  0  0
   -2.4911    5.4933    0.0000 C   0  0  0  0  0  0  0  0  0  0  0  0
   -3.9583    5.1814    0.0000 C   0  0  0  0  0  0  0  0  0  0  0  0
   -4.4218    3.7548    0.0000 C   0  0  0  0  0  0  0  0  0  0  0  0
   -0.7500   -1.2990    0.0000 C   0  0  0  0  0  0  0  0  0  0  0  0
   -1.5000   -2.5981    0.0000 O   0  0  0  0  0  0  0  0  0  0  0  0
    0.7500   -1.2990    0.0000 N   0  0  0  0  0  0  0  0  0  0  0  0
  1  2  1  0
  2  3  2  0
  3  4  1  0
  4  5  2  0
  5  6  1  0
  6  7  2  0
  7  8  1  0
  8  9  2  0
  9 10  1  0
 10 11  1  0
 11 12  2  0
 12 13  1  0
 13 14  2  0
 14 15  1  0
 15 16  1  0
  5 17  1  0
 17 18  2  0
 17 19  1  0
 19  2  1  0
 10  6  1  0
 16 11  1  0
M  END
>  <Title>  (43) 
idAABQgen7

$$$$

     RDKit          2D

 14 15  0  0  0  0  0  0  0  0999 V2000
    0.4775   -7.0740    0.0000 C   0  0  0  0  0  0  0  0  0  0  0  0
    1.8478   -6.4639    0.0000 O   0  0  0  0  0  0  0  0  0  0  0  0
    2.0046   -4.9721    0.0000 C   0  0  0  0  0  0  0  0  0  0  0  0
    3.3037   -4.2221    0.0000 C   0  0  0  0  0  0  0  0  0  0  0  0
    2.9918   -2.7549    0.0000 C   0  0  0  0  0  0  0  0  0  0  0  0
    1.5000   -2.5981    0.0000 N   0  0  0  0  0  0  0  0  0  0  0  0
    0.7500   -1.2990    0.0000 C   0  0  0  0  0  0  0  0  0  0  0  0
    1.5000    0.0000    0.0000 C   0  0  0  0  0  0  0  0  0  0  0  0
    0.7500    1.2990    0.0000 C   0  0  0  0  0  0  0  0  0  0  0  0
   -0.7500    1.2990    0.0000 C   0  0  0  0  0  0  0  0  0  0  0  0
   -1.5000    0.0000    0.0000 C   0  0  0  0  0  0  0  0  0  0  0  0
   -0.7500   -1.2990    0.0000 C   0  0  0  0  0  0  0  0  0  0  0  0
    0.8899   -3.9684    0.0000 C   0  0  0  0  0  0  0  0  0  0  0  0
   -0.5773   -4.2803    0.0000 O   0  0  0  0  0  0  0  0  0  0  0  0
  1  2  1  0
  2  3  1  0
  3  4  2  0
  4  5  1  0
  5  6  1  0
  6  7  1  0
  7  8  2  0
  8  9  1  0
  9 10  2  0
 10 11  1  0
 11 12  2  0
  6 13  1  0
 13 14  2  0
 13  3  1  0
 12  7  1  0
M  END
>  <Title>  (44) 
idAABRgen7

$$$$

     RDKit          2D

 45 50  0  0  0  0  0  0  0  0999 V2000
    3.7500   -1.2990    0.0000 C   0  0  0  0  0  0  0  0  0  0  0  0
    3.0000    0.0000    0.0000 O   0  0  0  0  0  0  0  0  0  0  0  0
    1.5000    0.0000    0.0000 C   0  0  0  0  0  0  0  0  0  0  0  0
    0.7500   -1.2990    0.0000 C   0  0  0  0  0  0  0  0  0  0  0  0
   -0.7500   -1.2990    0.0000 C   0  0  0  0  0  0  0  0  0  0  0  0
   -1.5000    0.0000    0.0000 C   0  0  0  0  0  0  0  0  0  0  0  0
   -3.0000    0.0000    0.0000 C   0  0  0  0  0  0  0  0  0  0  0  0
   -3.7500   -1.2990    0.0000 O   0  0  0  0  0  0  0  0  0  0  0  0
   -3.7500    1.2990    0.0000 N   0  0  0  0  0  0  0  0  0  0  0  0
   -5.2500    1.2990    0.0000 C   0  0  0  0  0  0  0  0  0  0  0  0
   -6.1317    0.0855    0.0000 N   0  0  0  0  0  0  0  0  0  0  0  0
   -7.5583    0.5490    0.0000 N   0  0  0  0  0  0  0  0  0  0  0  0
   -7.5583    2.0490    0.0000 N   0  0  0  0  0  0  0  0  0  0  0  0
   -6.1317    2.5126    0.0000 N   0  0  0  0  0  0  0  0  0  0  0  0
   -5.6682    3.9391    0.0000 C   0  0  0  0  0  0  0  0  0  0  0  0
   -4.2009    4.2510    0.0000 C   0  0  0  0  0  0  0  0  0  0  0  0
   -3.7374    5.6776    0.0000 C   0  0  0  0  0  0  0  0  0  0  0  0
   -4.7411    6.7923    0.0000 C   0  0  0  0  0  0  0  0  0  0  0  0
   -4.2776    8.2189    0.0000 C   0  0  0  0  0  0  0  0  0  0  0  0
   -5.1593    9.4324    0.0000 N   0  0  0  0  0  0  0  0  0  0  0  0
   -4.2776   10.6460    0.0000 N   0  0  0  0  0  0  0  0  0  0  0  0
   -2.8510   10.1824    0.0000 N   0  0  0  0  0  0  0  0  0  0  0  0
   -2.8510    8.6824    0.0000 N   0  0  0  0  0  0  0  0  0  0  0  0
   -1.6375    7.8008    0.0000 C   0  0  0  0  0  0  0  0  0  0  0  0
   -1.7943    6.3090    0.0000 C   0  0  0  0  0  0  0  0  0  0  0  0
   -0.5807    5.4273    0.0000 C   0  0  0  0  0  0  0  0  0  0  0  0
    0.7896    6.0374    0.0000 C   0  0  0  0  0  0  0  0  0  0  0  0
    0.9464    7.5292    0.0000 C   0  0  0  0  0  0  0  0  0  0  0  0
    2.3167    8.1393    0.0000 C   0  0  0  0  0  0  0  0  0  0  0  0
   -0.2671    8.4109    0.0000 N   0  0  0  0  0  0  0  0  0  0  0  0
   -6.2083    6.4805    0.0000 C   0  0  0  0  0  0  0  0  0  0  0  0
   -6.6718    5.0539    0.0000 C   0  0  0  0  0  0  0  0  0  0  0  0
   -8.1391    4.7420    0.0000 C   0  0  0  0  0  0  0  0  0  0  0  0
   -9.1428    5.8567    0.0000 C   0  0  0  0  0  0  0  0  0  0  0  0
  -10.6100    5.5448    0.0000 C   0  0  0  0  0  0  0  0  0  0  0  0
  -11.0735    4.1183    0.0000 C   0  0  0  0  0  0  0  0  0  0  0  0
  -12.5407    3.8064    0.0000 C   0  0  0  0  0  0  0  0  0  0  0  0
  -13.0043    2.3798    0.0000 O   0  0  0  0  0  0  0  0  0  0  0  0
  -13.5444    4.9211    0.0000 N   0  0  0  0  0  0  0  0  0  0  0  0
  -15.0117    4.6092    0.0000 O   0  0  0  0  0  0  0  0  0  0  0  0
  -10.0698    3.0035    0.0000 C   0  0  0  0  0  0  0  0  0  0  0  0
   -8.6026    3.3154    0.0000 C   0  0  0  0  0  0  0  0  0  0  0  0
   -0.7500    1.2990    0.0000 C   0  0  0  0  0  0  0  0  0  0  0  0
   -1.5000    2.5981    0.0000 O   0  0  0  0  0  0  0  0  0  0  0  0
    0.7500    1.2990    0.0000 N   0  0  0  0  0  0  0  0  0  0  0  0
  1  2  1  0
  2  3  1  0
  3  4  2  0
  4  5  1  0
  5  6  2  0
  6  7  1  0
  7  8  2  0
  7  9  1  0
  9 10  1  0
 10 11  2  0
 11 12  1  0
 12 13  2  0
 13 14  1  0
 14 15  1  0
 15 16  2  0
 16 17  1  0
 17 18  2  0
 18 19  1  0
 19 20  2  0
 20 21  1  0
 21 22  2  0
 22 23  1  0
 23 24  1  0
 24 25  2  0
 25 26  1  0
 26 27  2  0
 27 28  1  0
 28 29  1  0
 28 30  2  0
 18 31  1  0
 31 32  2  0
 32 33  1  0
 33 34  2  0
 34 35  1  0
 35 36  2  0
 36 37  1  0
 37 38  2  0
 37 39  1  0
 39 40  1  0
 36 41  1  0
 41 42  1  0
  6 43  1  0
 43 44  2  0
 43 45  1  0
 45  3  1  0
 14 10  1  0
 32 15  1  0
 42 33  1  0
 23 19  1  0
 30 24  1  0
M  END
>  <Title>  (45) 
idAABSgen7

$$$$

     RDKit          2D

 22 25  0  0  0  0  0  0  0  0999 V2000
   -0.2404    3.3602    0.0000 C   0  0  0  0  0  0  0  0  0  0  0  0
    0.5096    2.0612    0.0000 C   0  0  0  0  0  0  0  0  0  0  0  0
   -0.1005    0.6909    0.0000 C   0  0  0  0  0  0  0  0  0  0  0  0
    1.0143   -0.3128    0.0000 C   0  0  0  0  0  0  0  0  0  0  0  0
    2.3133    0.4372    0.0000 C   0  0  0  0  0  0  0  0  0  0  0  0
    3.6836   -0.1729    0.0000 C   0  0  0  0  0  0  0  0  0  0  0  0
    4.9826    0.5771    0.0000 N   0  0  0  0  0  0  0  0  0  0  0  0
    6.0974   -0.4266    0.0000 N   0  0  0  0  0  0  0  0  0  0  0  0
    5.4873   -1.7969    0.0000 N   0  0  0  0  0  0  0  0  0  0  0  0
    3.9955   -1.6402    0.0000 N   0  0  0  0  0  0  0  0  0  0  0  0
    2.9918   -2.7549    0.0000 C   0  0  0  0  0  0  0  0  0  0  0  0
    1.5000   -2.5981    0.0000 N   0  0  0  0  0  0  0  0  0  0  0  0
    0.8899   -3.9684    0.0000 N   0  0  0  0  0  0  0  0  0  0  0  0
    2.0046   -4.9721    0.0000 N   0  0  0  0  0  0  0  0  0  0  0  0
    3.3037   -4.2221    0.0000 N   0  0  0  0  0  0  0  0  0  0  0  0
    4.6740   -4.8322    0.0000 C   0  0  0  0  0  0  0  0  0  0  0  0
    5.8875   -3.9505    0.0000 C   0  0  0  0  0  0  0  0  0  0  0  0
    7.2578   -4.5606    0.0000 C   0  0  0  0  0  0  0  0  0  0  0  0
    7.4146   -6.0524    0.0000 C   0  0  0  0  0  0  0  0  0  0  0  0
    6.2011   -6.9341    0.0000 C   0  0  0  0  0  0  0  0  0  0  0  0
    4.8308   -6.3240    0.0000 C   0  0  0  0  0  0  0  0  0  0  0  0
    2.0014    1.9044    0.0000 C   0  0  0  0  0  0  0  0  0  0  0  0
  1  2  1  0
  2  3  2  0
  3  4  1  0
  4  5  2  0
  5  6  1  0
  6  7  2  0
  7  8  1  0
  8  9  2  0
  9 10  1  0
 10 11  1  0
 11 12  2  0
 12 13  1  0
 13 14  2  0
 14 15  1  0
 15 16  1  0
 16 17  2  0
 17 18  1  0
 18 19  2  0
 19 20  1  0
 20 21  2  0
  5 22  1  0
 22  2  1  0
 10  6  1  0
 15 11  1  0
 21 16  1  0
M  END
>  <Title>  (46) 
idAABTgen7

$$$$

     RDKit          2D

 23 26  0  0  0  0  0  0  0  0999 V2000
    3.0000    0.0000    0.0000 C   0  0  0  0  0  0  0  0  0  0  0  0
    1.5000    0.0000    0.0000 C   0  0  0  0  0  0  0  0  0  0  0  0
    0.7500   -1.2990    0.0000 C   0  0  0  0  0  0  0  0  0  0  0  0
   -0.7500   -1.2990    0.0000 C   0  0  0  0  0  0  0  0  0  0  0  0
   -1.5000    0.0000    0.0000 C   0  0  0  0  0  0  0  0  0  0  0  0
   -3.0000    0.0000    0.0000 C   0  0  0  0  0  0  0  0  0  0  0  0
   -3.8817   -1.2135    0.0000 N   0  0  0  0  0  0  0  0  0  0  0  0
   -5.3083   -0.7500    0.0000 N   0  0  0  0  0  0  0  0  0  0  0  0
   -5.3083    0.7500    0.0000 N   0  0  0  0  0  0  0  0  0  0  0  0
   -3.8817    1.2135    0.0000 N   0  0  0  0  0  0  0  0  0  0  0  0
   -3.4182    2.6401    0.0000 C   0  0  0  0  0  0  0  0  0  0  0  0
   -1.9916    3.1036    0.0000 N   0  0  0  0  0  0  0  0  0  0  0  0
   -1.9916    4.6036    0.0000 N   0  0  0  0  0  0  0  0  0  0  0  0
   -3.4182    5.0672    0.0000 N   0  0  0  0  0  0  0  0  0  0  0  0
   -4.2998    3.8536    0.0000 N   0  0  0  0  0  0  0  0  0  0  0  0
   -5.7998    3.8536    0.0000 C   0  0  0  0  0  0  0  0  0  0  0  0
   -6.5498    2.5546    0.0000 C   0  0  0  0  0  0  0  0  0  0  0  0
   -8.0498    2.5546    0.0000 C   0  0  0  0  0  0  0  0  0  0  0  0
   -8.7998    3.8536    0.0000 C   0  0  0  0  0  0  0  0  0  0  0  0
   -8.0498    5.1527    0.0000 C   0  0  0  0  0  0  0  0  0  0  0  0
   -6.5498    5.1527    0.0000 C   0  0  0  0  0  0  0  0  0  0  0  0
   -0.7500    1.2990    0.0000 C   0  0  0  0  0  0  0  0  0  0  0  0
    0.7500    1.2990    0.0000 C   0  0  0  0  0  0  0  0  0  0  0  0
  1  2  1  0
  2  3  2  0
  3  4  1  0
  4  5  2  0
  5  6  1  0
  6  7  2  0
  7  8  1  0
  8  9  2  0
  9 10  1  0
 10 11  1  0
 11 12  2  0
 12 13  1  0
 13 14  2  0
 14 15  1  0
 15 16  1  0
 16 17  2  0
 17 18  1  0
 18 19  2  0
 19 20  1  0
 20 21  2  0
  5 22  1  0
 22 23  2  0
 23  2  1  0
 10  6  1  0
 15 11  1  0
 21 16  1  0
M  END
>  <Title>  (47) 
idAABUgen7

$$$$

     RDKit          2D

 28 31  0  0  0  0  0  0  0  0999 V2000
  -10.1624    4.2767    0.0000 C   0  0  0  0  0  0  0  0  0  0  0  0
   -8.9488    3.3950    0.0000 C   0  0  0  0  0  0  0  0  0  0  0  0
   -7.5785    4.0051    0.0000 C   0  0  0  0  0  0  0  0  0  0  0  0
   -6.3650    3.1235    0.0000 C   0  0  0  0  0  0  0  0  0  0  0  0
   -6.5218    1.6317    0.0000 C   0  0  0  0  0  0  0  0  0  0  0  0
   -5.3083    0.7500    0.0000 C   0  0  0  0  0  0  0  0  0  0  0  0
   -5.3083   -0.7500    0.0000 N   0  0  0  0  0  0  0  0  0  0  0  0
   -3.8817   -1.2135    0.0000 N   0  0  0  0  0  0  0  0  0  0  0  0
   -3.0000    0.0000    0.0000 N   0  0  0  0  0  0  0  0  0  0  0  0
   -3.8817    1.2135    0.0000 N   0  0  0  0  0  0  0  0  0  0  0  0
   -3.4182    2.6401    0.0000 C   0  0  0  0  0  0  0  0  0  0  0  0
   -4.2998    3.8536    0.0000 C   0  0  0  0  0  0  0  0  0  0  0  0
   -3.4182    5.0672    0.0000 N   0  0  0  0  0  0  0  0  0  0  0  0
   -1.9916    4.6036    0.0000 N   0  0  0  0  0  0  0  0  0  0  0  0
   -1.9916    3.1036    0.0000 N   0  0  0  0  0  0  0  0  0  0  0  0
   -0.7780    2.2220    0.0000 C   0  0  0  0  0  0  0  0  0  0  0  0
   -0.9348    0.7302    0.0000 C   0  0  0  0  0  0  0  0  0  0  0  0
    0.2787   -0.1515    0.0000 C   0  0  0  0  0  0  0  0  0  0  0  0
    1.6490    0.4586    0.0000 C   0  0  0  0  0  0  0  0  0  0  0  0
    2.8625   -0.4231    0.0000 C   0  0  0  0  0  0  0  0  0  0  0  0
    2.7057   -1.9149    0.0000 O   0  0  0  0  0  0  0  0  0  0  0  0
    4.2329    0.1870    0.0000 N   0  0  0  0  0  0  0  0  0  0  0  0
    5.4464   -0.6946    0.0000 O   0  0  0  0  0  0  0  0  0  0  0  0
    1.8058    1.9504    0.0000 C   0  0  0  0  0  0  0  0  0  0  0  0
    0.5923    2.8321    0.0000 C   0  0  0  0  0  0  0  0  0  0  0  0
   -7.8921    1.0216    0.0000 C   0  0  0  0  0  0  0  0  0  0  0  0
   -8.0489   -0.4702    0.0000 O   0  0  0  0  0  0  0  0  0  0  0  0
   -9.1056    1.9033    0.0000 N   0  0  0  0  0  0  0  0  0  0  0  0
  1  2  1  0
  2  3  2  0
  3  4  1  0
  4  5  2  0
  5  6  1  0
  6  7  2  0
  7  8  1  0
  8  9  2  0
  9 10  1  0
 10 11  1  0
 11 12  2  0
 12 13  1  0
 13 14  2  0
 14 15  1  0
 15 16  1  0
 16 17  2  0
 17 18  1  0
 18 19  2  0
 19 20  1  0
 20 21  2  0
 20 22  1  0
 22 23  1  0
 19 24  1  0
 24 25  1  0
  5 26  1  0
 26 27  2  0
 26 28  1  0
 28  2  1  0
 10  6  1  0
 15 11  1  0
 25 16  1  0
M  END
>  <Title>  (48) 
idAABVgen7

$$$$

     RDKit          2D

 31 34  0  0  0  0  0  0  0  0999 V2000
    3.0000    0.0000    0.0000 C   0  0  0  0  0  0  0  0  0  0  0  0
    1.5000    0.0000    0.0000 C   0  0  0  0  0  0  0  0  0  0  0  0
    0.7500   -1.2990    0.0000 C   0  0  0  0  0  0  0  0  0  0  0  0
   -0.7500   -1.2990    0.0000 C   0  0  0  0  0  0  0  0  0  0  0  0
   -1.5000    0.0000    0.0000 C   0  0  0  0  0  0  0  0  0  0  0  0
   -3.0000    0.0000    0.0000 C   0  0  0  0  0  0  0  0  0  0  0  0
   -3.7500   -1.2990    0.0000 O   0  0  0  0  0  0  0  0  0  0  0  0
   -3.7500    1.2990    0.0000 N   0  0  0  0  0  0  0  0  0  0  0  0
   -5.2500    1.2990    0.0000 C   0  0  0  0  0  0  0  0  0  0  0  0
   -6.1317    0.0855    0.0000 N   0  0  0  0  0  0  0  0  0  0  0  0
   -7.5583    0.5490    0.0000 N   0  0  0  0  0  0  0  0  0  0  0  0
   -7.5583    2.0490    0.0000 N   0  0  0  0  0  0  0  0  0  0  0  0
   -6.1317    2.5126    0.0000 N   0  0  0  0  0  0  0  0  0  0  0  0
   -5.6682    3.9391    0.0000 C   0  0  0  0  0  0  0  0  0  0  0  0
   -4.2009    4.2510    0.0000 C   0  0  0  0  0  0  0  0  0  0  0  0
   -3.7374    5.6776    0.0000 C   0  0  0  0  0  0  0  0  0  0  0  0
   -4.7411    6.7923    0.0000 C   0  0  0  0  0  0  0  0  0  0  0  0
   -4.2776    8.2189    0.0000 C   0  0  0  0  0  0  0  0  0  0  0  0
   -5.2813    9.3336    0.0000 O   0  0  0  0  0  0  0  0  0  0  0  0
   -2.8104    8.5308    0.0000 N   0  0  0  0  0  0  0  0  0  0  0  0
   -2.3468    9.9574    0.0000 C   0  0  0  0  0  0  0  0  0  0  0  0
   -3.2285   11.1709    0.0000 C   0  0  0  0  0  0  0  0  0  0  0  0
   -2.3468   12.3844    0.0000 C   0  0  0  0  0  0  0  0  0  0  0  0
   -0.9202   11.9209    0.0000 C   0  0  0  0  0  0  0  0  0  0  0  0
    0.2933   12.8026    0.0000 C   0  0  0  0  0  0  0  0  0  0  0  0
   -0.9202   10.4209    0.0000 C   0  0  0  0  0  0  0  0  0  0  0  0
    0.2933    9.5392    0.0000 O   0  0  0  0  0  0  0  0  0  0  0  0
   -6.2083    6.4805    0.0000 C   0  0  0  0  0  0  0  0  0  0  0  0
   -6.6718    5.0539    0.0000 C   0  0  0  0  0  0  0  0  0  0  0  0
   -0.7500    1.2990    0.0000 C   0  0  0  0  0  0  0  0  0  0  0  0
    0.7500    1.2990    0.0000 C   0  0  0  0  0  0  0  0  0  0  0  0
  1  2  1  0
  2  3  2  0
  3  4  1  0
  4  5  2  0
  5  6  1  0
  6  7  2  0
  6  8  1  0
  8  9  1  0
  9 10  2  0
 10 11  1  0
 11 12  2  0
 12 13  1  0
 13 14  1  0
 14 15  2  0
 15 16  1  0
 16 17  2  0
 17 18  1  0
 18 19  2  0
 18 20  1  0
 20 21  1  0
 21 22  2  0
 22 23  1  0
 23 24  2  0
 24 25  1  0
 24 26  1  0
 26 27  2  0
 17 28  1  0
 28 29  2  0
  5 30  1  0
 30 31  2  0
 31  2  1  0
 13  9  1  0
 29 14  1  0
 26 21  1  0
M  END
>  <Title>  (49) 
idAABWgen7

$$$$

     RDKit          2D

 24 26  0  0  0  0  0  0  0  0999 V2000
    3.0000    0.0000    0.0000 C   0  0  0  0  0  0  0  0  0  0  0  0
    1.5000    0.0000    0.0000 C   0  0  0  0  0  0  0  0  0  0  0  0
    0.7500    1.2990    0.0000 C   0  0  0  0  0  0  0  0  0  0  0  0
   -0.7500    1.2990    0.0000 C   0  0  0  0  0  0  0  0  0  0  0  0
   -1.5000    0.0000    0.0000 C   0  0  0  0  0  0  0  0  0  0  0  0
   -3.0000    0.0000    0.0000 N   0  0  0  0  0  0  0  0  0  0  0  0
   -3.8817   -1.2135    0.0000 N   0  0  0  0  0  0  0  0  0  0  0  0
   -5.3083   -0.7500    0.0000 N   0  0  0  0  0  0  0  0  0  0  0  0
   -5.3083    0.7500    0.0000 N   0  0  0  0  0  0  0  0  0  0  0  0
   -3.8817    1.2135    0.0000 C   0  0  0  0  0  0  0  0  0  0  0  0
   -3.4182    2.6401    0.0000 C   0  0  0  0  0  0  0  0  0  0  0  0
   -1.9509    2.9520    0.0000 C   0  0  0  0  0  0  0  0  0  0  0  0
   -1.4874    4.3786    0.0000 C   0  0  0  0  0  0  0  0  0  0  0  0
   -2.4911    5.4933    0.0000 C   0  0  0  0  0  0  0  0  0  0  0  0
   -2.0276    6.9199    0.0000 C   0  0  0  0  0  0  0  0  0  0  0  0
   -3.0313    8.0346    0.0000 O   0  0  0  0  0  0  0  0  0  0  0  0
   -0.5604    7.2317    0.0000 N   0  0  0  0  0  0  0  0  0  0  0  0
   -0.0968    8.6583    0.0000 O   0  0  0  0  0  0  0  0  0  0  0  0
   -3.9583    5.1814    0.0000 C   0  0  0  0  0  0  0  0  0  0  0  0
   -4.9620    6.2961    0.0000 O   0  0  0  0  0  0  0  0  0  0  0  0
   -4.4218    3.7548    0.0000 N   0  0  0  0  0  0  0  0  0  0  0  0
   -0.7500   -1.2990    0.0000 C   0  0  0  0  0  0  0  0  0  0  0  0
   -1.5000   -2.5981    0.0000 O   0  0  0  0  0  0  0  0  0  0  0  0
    0.7500   -1.2990    0.0000 N   0  0  0  0  0  0  0  0  0  0  0  0
  1  2  1  0
  2  3  2  0
  3  4  1  0
  4  5  2  0
  5  6  1  0
  6  7  1  0
  7  8  2  0
  8  9  1  0
  9 10  2  0
 10 11  1  0
 11 12  2  0
 12 13  1  0
 13 14  2  0
 14 15  1  0
 15 16  2  0
 15 17  1  0
 17 18  1  0
 14 19  1  0
 19 20  2  0
 19 21  1  0
  5 22  1  0
 22 23  2  0
 22 24  1  0
 24  2  1  0
 10  6  1  0
 21 11  1  0
M  END
>  <Title>  (50) 
idAABXgen7

$$$$

     RDKit          2D

 29 32  0  0  0  0  0  0  0  0999 V2000
    3.0000    0.0000    0.0000 C   0  0  0  0  0  0  0  0  0  0  0  0
    1.5000    0.0000    0.0000 C   0  0  0  0  0  0  0  0  0  0  0  0
    0.7500   -1.2990    0.0000 C   0  0  0  0  0  0  0  0  0  0  0  0
   -0.7500   -1.2990    0.0000 C   0  0  0  0  0  0  0  0  0  0  0  0
   -1.5000    0.0000    0.0000 C   0  0  0  0  0  0  0  0  0  0  0  0
   -3.0000    0.0000    0.0000 C   0  0  0  0  0  0  0  0  0  0  0  0
   -3.7500   -1.2990    0.0000 O   0  0  0  0  0  0  0  0  0  0  0  0
   -3.7500    1.2990    0.0000 N   0  0  0  0  0  0  0  0  0  0  0  0
   -5.2500    1.2990    0.0000 C   0  0  0  0  0  0  0  0  0  0  0  0
   -6.1317    0.0855    0.0000 N   0  0  0  0  0  0  0  0  0  0  0  0
   -7.5583    0.5490    0.0000 C   0  0  0  0  0  0  0  0  0  0  0  0
   -8.7718   -0.3326    0.0000 C   0  0  0  0  0  0  0  0  0  0  0  0
   -8.6150   -1.8244    0.0000 O   0  0  0  0  0  0  0  0  0  0  0  0
  -10.1421    0.2775    0.0000 N   0  0  0  0  0  0  0  0  0  0  0  0
  -11.3556   -0.6042    0.0000 C   0  0  0  0  0  0  0  0  0  0  0  0
  -11.3556   -2.1042    0.0000 N   0  0  0  0  0  0  0  0  0  0  0  0
  -12.7822   -2.5677    0.0000 N   0  0  0  0  0  0  0  0  0  0  0  0
  -13.6639   -1.3542    0.0000 N   0  0  0  0  0  0  0  0  0  0  0  0
  -12.7822   -0.1407    0.0000 N   0  0  0  0  0  0  0  0  0  0  0  0
  -13.2457    1.2859    0.0000 C   0  0  0  0  0  0  0  0  0  0  0  0
  -12.2420    2.4006    0.0000 C   0  0  0  0  0  0  0  0  0  0  0  0
  -12.7056    3.8272    0.0000 C   0  0  0  0  0  0  0  0  0  0  0  0
  -14.1728    4.1391    0.0000 C   0  0  0  0  0  0  0  0  0  0  0  0
  -15.1765    3.0243    0.0000 C   0  0  0  0  0  0  0  0  0  0  0  0
  -14.7130    1.5978    0.0000 C   0  0  0  0  0  0  0  0  0  0  0  0
   -7.5583    2.0490    0.0000 C   0  0  0  0  0  0  0  0  0  0  0  0
   -6.1317    2.5126    0.0000 C   0  0  0  0  0  0  0  0  0  0  0  0
   -0.7500    1.2990    0.0000 C   0  0  0  0  0  0  0  0  0  0  0  0
    0.7500    1.2990    0.0000 C   0  0  0  0  0  0  0  0  0  0  0  0
  1  2  1  0
  2  3  2  0
  3  4  1  0
  4  5  2  0
  5  6  1  0
  6  7  2  0
  6  8  1  0
  8  9  1  0
  9 10  2  0
 10 11  1  0
 11 12  1  0
 12 13  2  0
 12 14  1  0
 14 15  1  0
 15 16  2  0
 16 17  1  0
 17 18  2  0
 18 19  1  0
 19 20  1  0
 20 21  2  0
 21 22  1  0
 22 23  2  0
 23 24  1  0
 24 25  2  0
 11 26  1  0
 26 27  2  0
  5 28  1  0
 28 29  1  0
 29  2  1  0
 27  9  1  0
 19 15  1  0
 25 20  1  0
M  END
>  <Title>  (51) 
idAABYgen7

$$$$

     RDKit          2D

 61 67  0  0  0  0  0  0  0  0999 V2000
  -11.8628    0.7457    0.0000 C   0  0  0  0  0  0  0  0  0  0  0  0
  -10.6234    1.5906    0.0000 C   0  0  0  0  0  0  0  0  0  0  0  0
   -9.2720    0.9398    0.0000 C   0  0  0  0  0  0  0  0  0  0  0  0
   -8.0326    1.7848    0.0000 C   0  0  0  0  0  0  0  0  0  0  0  0
   -6.6811    1.1340    0.0000 C   0  0  0  0  0  0  0  0  0  0  0  0
   -5.4418    1.9790    0.0000 C   0  0  0  0  0  0  0  0  0  0  0  0
   -4.0903    1.3281    0.0000 C   0  0  0  0  0  0  0  0  0  0  0  0
   -2.9176    2.2634    0.0000 C   0  0  0  0  0  0  0  0  0  0  0  0
   -1.4552    1.9296    0.0000 C   0  0  0  0  0  0  0  0  0  0  0  0
   -0.8044    0.5781    0.0000 C   0  0  0  0  0  0  0  0  0  0  0  0
    0.6956    0.5781    0.0000 O   0  0  0  0  0  0  0  0  0  0  0  0
    1.4456    1.8772    0.0000 C   0  0  0  0  0  0  0  0  0  0  0  0
   -1.4552   -0.7733    0.0000 N   0  0  0  0  0  0  0  0  0  0  0  0
   -2.9176   -1.1071    0.0000 C   0  0  0  0  0  0  0  0  0  0  0  0
   -3.2514   -2.5695    0.0000 N   0  0  0  0  0  0  0  0  0  0  0  0
   -2.1518   -3.5898    0.0000 C   0  0  0  0  0  0  0  0  0  0  0  0
   -0.7184   -3.1476    0.0000 O   0  0  0  0  0  0  0  0  0  0  0  0
   -2.4856   -5.0522    0.0000 C   0  0  0  0  0  0  0  0  0  0  0  0
   -3.9189   -5.4943    0.0000 C   0  0  0  0  0  0  0  0  0  0  0  0
   -4.2527   -6.9567    0.0000 C   0  0  0  0  0  0  0  0  0  0  0  0
   -3.1531   -7.9769    0.0000 C   0  0  0  0  0  0  0  0  0  0  0  0
   -3.4869   -9.4393    0.0000 C   0  0  0  0  0  0  0  0  0  0  0  0
   -2.3873  -10.4596    0.0000 O   0  0  0  0  0  0  0  0  0  0  0  0
   -4.9203   -9.8815    0.0000 N   0  0  0  0  0  0  0  0  0  0  0  0
   -5.2541  -11.3439    0.0000 C   0  0  0  0  0  0  0  0  0  0  0  0
   -4.1545  -12.3641    0.0000 O   0  0  0  0  0  0  0  0  0  0  0  0
   -6.6874  -11.7860    0.0000 C   0  0  0  0  0  0  0  0  0  0  0  0
   -7.0212  -13.2484    0.0000 C   0  0  0  0  0  0  0  0  0  0  0  0
   -8.4546  -13.6905    0.0000 C   0  0  0  0  0  0  0  0  0  0  0  0
   -8.7883  -15.1529    0.0000 C   0  0  0  0  0  0  0  0  0  0  0  0
   -7.6888  -16.1732    0.0000 C   0  0  0  0  0  0  0  0  0  0  0  0
   -6.2554  -15.7310    0.0000 C   0  0  0  0  0  0  0  0  0  0  0  0
   -5.9216  -14.2686    0.0000 C   0  0  0  0  0  0  0  0  0  0  0  0
   -1.7198   -7.5348    0.0000 C   0  0  0  0  0  0  0  0  0  0  0  0
   -1.3860   -6.0724    0.0000 C   0  0  0  0  0  0  0  0  0  0  0  0
    0.0474   -5.6303    0.0000 C   0  0  0  0  0  0  0  0  0  0  0  0
    0.3812   -4.1679    0.0000 C   0  0  0  0  0  0  0  0  0  0  0  0
    1.8145   -3.7258    0.0000 C   0  0  0  0  0  0  0  0  0  0  0  0
    2.9141   -4.7460    0.0000 C   0  0  0  0  0  0  0  0  0  0  0  0
    4.3474   -4.3039    0.0000 C   0  0  0  0  0  0  0  0  0  0  0  0
    4.6812   -2.8415    0.0000 C   0  0  0  0  0  0  0  0  0  0  0  0
    6.1146   -2.3994    0.0000 C   0  0  0  0  0  0  0  0  0  0  0  0
    7.2142   -3.4196    0.0000 C   0  0  0  0  0  0  0  0  0  0  0  0
    8.6475   -2.9775    0.0000 C   0  0  0  0  0  0  0  0  0  0  0  0
    8.9813   -1.5151    0.0000 C   0  0  0  0  0  0  0  0  0  0  0  0
   10.4147   -1.0730    0.0000 C   0  0  0  0  0  0  0  0  0  0  0  0
   11.5142   -2.0932    0.0000 C   0  0  0  0  0  0  0  0  0  0  0  0
   11.1805   -3.5556    0.0000 C   0  0  0  0  0  0  0  0  0  0  0  0
    9.7471   -3.9977    0.0000 C   0  0  0  0  0  0  0  0  0  0  0  0
    6.8804   -4.8820    0.0000 C   0  0  0  0  0  0  0  0  0  0  0  0
    5.4470   -5.3241    0.0000 C   0  0  0  0  0  0  0  0  0  0  0  0
    2.5803   -6.2084    0.0000 C   0  0  0  0  0  0  0  0  0  0  0  0
    1.1469   -6.6505    0.0000 C   0  0  0  0  0  0  0  0  0  0  0  0
    0.8132   -8.1129    0.0000 C   0  0  0  0  0  0  0  0  0  0  0  0
    1.9127   -9.1332    0.0000 C   0  0  0  0  0  0  0  0  0  0  0  0
    1.5790  -10.5956    0.0000 C   0  0  0  0  0  0  0  0  0  0  0  0
    0.1456  -11.0377    0.0000 C   0  0  0  0  0  0  0  0  0  0  0  0
   -0.9540  -10.0175    0.0000 C   0  0  0  0  0  0  0  0  0  0  0  0
   -0.6202   -8.5551    0.0000 C   0  0  0  0  0  0  0  0  0  0  0  0
   -4.0903   -0.1719    0.0000 C   0  0  0  0  0  0  0  0  0  0  0  0
   -5.4418   -0.8227    0.0000 O   0  0  0  0  0  0  0  0  0  0  0  0
  1  2  1  0
  2  3  1  0
  3  4  1  0
  4  5  1  0
  5  6  1  0
  6  7  1  0
  7  8  2  0
  8  9  1  0
  9 10  2  0
 10 11  1  0
 11 12  1  0
 10 13  1  0
 13 14  2  0
 14 15  1  0
 15 16  1  0
 16 17  2  0
 16 18  1  0
 18 19  2  0
 19 20  1  0
 20 21  2  0
 21 22  1  0
 22 23  2  0
 22 24  1  0
 24 25  1  0
 25 26  2  0
 25 27  1  0
 27 28  1  0
 28 29  2  0
 29 30  1  0
 30 31  2  0
 31 32  1  0
 32 33  2  0
 21 34  1  0
 34 35  2  0
 35 36  1  0
 36 37  2  0
 37 38  1  0
 38 39  2  0
 39 40  1  0
 40 41  2  0
 41 42  1  0
 42 43  2  0
 43 44  1  0
 44 45  2  0
 45 46  1  0
 46 47  2  0
 47 48  1  0
 48 49  2  0
 43 50  1  0
 50 51  2  0
 39 52  1  0
 52 53  2  0
 53 54  1  0
 54 55  2  0
 55 56  1  0
 56 57  2  0
 57 58  1  0
 58 59  2  0
 14 60  1  0
 60 61  1  0
 60  7  1  0
 35 18  1  0
 53 36  1  0
 59 54  1  0
 33 28  1  0
 51 40  1  0
 49 44  1  0
M  END
>  <Title>  (52) 
idAABZgen7

$$$$

     RDKit          2D

 28 28  0  0  0  0  0  0  0  0999 V2000
    8.4722   -1.2990    0.0000 C   0  0  0  0  0  0  0  0  0  0  0  0
    7.7222    0.0000    0.0000 O   0  0  0  0  0  0  0  0  0  0  0  0
    6.2222    0.0000    0.0000 C   0  0  0  0  0  0  0  0  0  0  0  0
    6.0414   -1.4891    0.0000 C   0  0  0  0  0  0  0  0  0  0  0  0
    5.5095   -2.8916    0.0000 C   0  0  0  0  0  0  0  0  0  0  0  0
    4.6574   -4.1261    0.0000 C   0  0  0  0  0  0  0  0  0  0  0  0
    3.5346   -5.1207    0.0000 C   0  0  0  0  0  0  0  0  0  0  0  0
    2.2064   -5.8178    0.0000 C   0  0  0  0  0  0  0  0  0  0  0  0
    0.7500   -6.1768    0.0000 C   0  0  0  0  0  0  0  0  0  0  0  0
   -0.7500   -6.1768    0.0000 C   0  0  0  0  0  0  0  0  0  0  0  0
   -2.2064   -5.8178    0.0000 C   0  0  0  0  0  0  0  0  0  0  0  0
   -3.5346   -5.1207    0.0000 C   0  0  0  0  0  0  0  0  0  0  0  0
   -4.6574   -4.1261    0.0000 C   0  0  0  0  0  0  0  0  0  0  0  0
   -5.5095   -2.8916    0.0000 C   0  0  0  0  0  0  0  0  0  0  0  0
   -6.0414   -1.4891    0.0000 C   0  0  0  0  0  0  0  0  0  0  0  0
   -6.2222    0.0000    0.0000 C   0  0  0  0  0  0  0  0  0  0  0  0
   -6.0414    1.4891    0.0000 C   0  0  0  0  0  0  0  0  0  0  0  0
   -5.5095    2.8916    0.0000 C   0  0  0  0  0  0  0  0  0  0  0  0
   -4.6574    4.1261    0.0000 C   0  0  0  0  0  0  0  0  0  0  0  0
   -3.5346    5.1207    0.0000 C   0  0  0  0  0  0  0  0  0  0  0  0
   -2.2064    5.8178    0.0000 C   0  0  0  0  0  0  0  0  0  0  0  0
   -0.7500    6.1768    0.0000 C   0  0  0  0  0  0  0  0  0  0  0  0
    0.7500    6.1768    0.0000 C   0  0  0  0  0  0  0  0  0  0  0  0
    2.2064    5.8178    0.0000 C   0  0  0  0  0  0  0  0  0  0  0  0
    3.5346    5.1207    0.0000 C   0  0  0  0  0  0  0  0  0  0  0  0
    4.6574    4.1261    0.0000 C   0  0  0  0  0  0  0  0  0  0  0  0
    5.5095    2.8916    0.0000 C   0  0  0  0  0  0  0  0  0  0  0  0
    6.0414    1.4891    0.0000 C   0  0  0  0  0  0  0  0  0  0  0  0
  1  2  1  0
  2  3  1  0
  3  4  2  0
  4  5  1  0
  5  6  2  0
  6  7  1  0
  7  8  2  0
  8  9  1  0
  9 10  2  0
 10 11  1  0
 11 12  2  0
 12 13  1  0
 13 14  2  0
 14 15  1  0
 15 16  2  0
 16 17  1  0
 17 18  2  0
 18 19  1  0
 19 20  2  0
 20 21  1  0
 21 22  2  0
 22 23  1  0
 23 24  2  0
 24 25  1  0
 25 26  2  0
 26 27  1  0
 27 28  2  0
 28  3  1  0
M  END
>  <Title>  (53) 
idAACAgen7

$$$$

     RDKit          2D

 55 62  0  0  0  0  0  0  0  0999 V2000
    3.7500   -1.2990    0.0000 C   0  0  0  0  0  0  0  0  0  0  0  0
    3.0000    0.0000    0.0000 O   0  0  0  0  0  0  0  0  0  0  0  0
    1.5000    0.0000    0.0000 C   0  0  0  0  0  0  0  0  0  0  0  0
    0.7500   -1.2990    0.0000 C   0  0  0  0  0  0  0  0  0  0  0  0
   -0.7500   -1.2990    0.0000 C   0  0  0  0  0  0  0  0  0  0  0  0
   -1.5000    0.0000    0.0000 C   0  0  0  0  0  0  0  0  0  0  0  0
   -3.0000    0.0000    0.0000 C   0  0  0  0  0  0  0  0  0  0  0  0
   -3.8817   -1.2135    0.0000 N   0  0  0  0  0  0  0  0  0  0  0  0
   -5.3083   -0.7500    0.0000 N   0  0  0  0  0  0  0  0  0  0  0  0
   -5.3083    0.7500    0.0000 N   0  0  0  0  0  0  0  0  0  0  0  0
   -3.8817    1.2135    0.0000 N   0  0  0  0  0  0  0  0  0  0  0  0
   -3.4182    2.6401    0.0000 C   0  0  0  0  0  0  0  0  0  0  0  0
   -1.9509    2.9520    0.0000 C   0  0  0  0  0  0  0  0  0  0  0  0
   -1.4874    4.3786    0.0000 C   0  0  0  0  0  0  0  0  0  0  0  0
   -2.4911    5.4933    0.0000 C   0  0  0  0  0  0  0  0  0  0  0  0
   -2.0276    6.9199    0.0000 C   0  0  0  0  0  0  0  0  0  0  0  0
   -3.0313    8.0346    0.0000 O   0  0  0  0  0  0  0  0  0  0  0  0
   -0.5604    7.2317    0.0000 N   0  0  0  0  0  0  0  0  0  0  0  0
   -0.0968    8.6583    0.0000 C   0  0  0  0  0  0  0  0  0  0  0  0
   -0.9785    9.8718    0.0000 N   0  0  0  0  0  0  0  0  0  0  0  0
   -0.0968   11.0854    0.0000 N   0  0  0  0  0  0  0  0  0  0  0  0
    1.3298   10.6218    0.0000 N   0  0  0  0  0  0  0  0  0  0  0  0
    1.3298    9.1218    0.0000 N   0  0  0  0  0  0  0  0  0  0  0  0
    2.5433    8.2402    0.0000 C   0  0  0  0  0  0  0  0  0  0  0  0
    2.3865    6.7484    0.0000 C   0  0  0  0  0  0  0  0  0  0  0  0
    3.6000    5.8667    0.0000 C   0  0  0  0  0  0  0  0  0  0  0  0
    4.9703    6.4768    0.0000 C   0  0  0  0  0  0  0  0  0  0  0  0
    6.1839    5.5951    0.0000 C   0  0  0  0  0  0  0  0  0  0  0  0
    6.0271    4.1033    0.0000 C   0  0  0  0  0  0  0  0  0  0  0  0
    7.2406    3.2217    0.0000 C   0  0  0  0  0  0  0  0  0  0  0  0
    8.6109    3.8318    0.0000 C   0  0  0  0  0  0  0  0  0  0  0  0
    8.7677    5.3236    0.0000 C   0  0  0  0  0  0  0  0  0  0  0  0
    7.5542    6.2052    0.0000 C   0  0  0  0  0  0  0  0  0  0  0  0
    5.1271    7.9686    0.0000 C   0  0  0  0  0  0  0  0  0  0  0  0
    3.9136    8.8503    0.0000 C   0  0  0  0  0  0  0  0  0  0  0  0
   -3.9583    5.1814    0.0000 C   0  0  0  0  0  0  0  0  0  0  0  0
   -4.4218    3.7548    0.0000 C   0  0  0  0  0  0  0  0  0  0  0  0
   -5.8891    3.4430    0.0000 C   0  0  0  0  0  0  0  0  0  0  0  0
   -6.3526    2.0164    0.0000 C   0  0  0  0  0  0  0  0  0  0  0  0
   -7.8198    1.7045    0.0000 C   0  0  0  0  0  0  0  0  0  0  0  0
   -8.8235    2.8192    0.0000 C   0  0  0  0  0  0  0  0  0  0  0  0
   -8.3600    4.2458    0.0000 C   0  0  0  0  0  0  0  0  0  0  0  0
   -6.8928    4.5577    0.0000 C   0  0  0  0  0  0  0  0  0  0  0  0
   -6.4292    5.9843    0.0000 C   0  0  0  0  0  0  0  0  0  0  0  0
   -7.4329    7.0990    0.0000 C   0  0  0  0  0  0  0  0  0  0  0  0
   -6.9694    8.5256    0.0000 C   0  0  0  0  0  0  0  0  0  0  0  0
   -5.5022    8.8374    0.0000 C   0  0  0  0  0  0  0  0  0  0  0  0
   -5.0387   10.2640    0.0000 C   0  0  0  0  0  0  0  0  0  0  0  0
   -3.5714   10.5759    0.0000 O   0  0  0  0  0  0  0  0  0  0  0  0
   -6.0424   11.3787    0.0000 N   0  0  0  0  0  0  0  0  0  0  0  0
   -5.5788   12.8053    0.0000 O   0  0  0  0  0  0  0  0  0  0  0  0
   -4.4985    7.7227    0.0000 C   0  0  0  0  0  0  0  0  0  0  0  0
   -4.9620    6.2961    0.0000 C   0  0  0  0  0  0  0  0  0  0  0  0
   -0.7500    1.2990    0.0000 C   0  0  0  0  0  0  0  0  0  0  0  0
    0.7500    1.2990    0.0000 C   0  0  0  0  0  0  0  0  0  0  0  0
  1  2  1  0
  2  3  1  0
  3  4  2  0
  4  5  1  0
  5  6  2  0
  6  7  1  0
  7  8  2  0
  8  9  1  0
  9 10  2  0
 10 11  1  0
 11 12  1  0
 12 13  2  0
 13 14  1  0
 14 15  2  0
 15 16  1  0
 16 17  2  0
 16 18  1  0
 18 19  1  0
 19 20  2  0
 20 21  1  0
 21 22  2  0
 22 23  1  0
 23 24  1  0
 24 25  2  0
 25 26  1  0
 26 27  2  0
 27 28  1  0
 28 29  2  0
 29 30  1  0
 30 31  2  0
 31 32  1  0
 32 33  2  0
 27 34  1  0
 34 35  2  0
 15 36  1  0
 36 37  2  0
 37 38  1  0
 38 39  2  0
 39 40  1  0
 40 41  2  0
 41 42  1  0
 42 43  2  0
 43 44  1  0
 44 45  2  0
 45 46  1  0
 46 47  2  0
 47 48  1  0
 48 49  2  0
 48 50  1  0
 50 51  1  0
 47 52  1  0
 52 53  1  0
  6 54  1  0
 54 55  1  0
 55  3  1  0
 11  7  1  0
 37 12  1  0
 43 38  1  0
 53 44  1  0
 23 19  1  0
 35 24  1  0
 33 28  1  0
M  END
>  <Title>  (54) 
idAACBgen7

$$$$

     RDKit          2D

 26 29  0  0  0  0  0  0  0  0999 V2000
    3.7500   -1.2990    0.0000 C   0  0  0  0  0  0  0  0  0  0  0  0
    3.0000    0.0000    0.0000 O   0  0  0  0  0  0  0  0  0  0  0  0
    1.5000    0.0000    0.0000 C   0  0  0  0  0  0  0  0  0  0  0  0
    0.7500   -1.2990    0.0000 C   0  0  0  0  0  0  0  0  0  0  0  0
   -0.7500   -1.2990    0.0000 C   0  0  0  0  0  0  0  0  0  0  0  0
   -1.5000    0.0000    0.0000 C   0  0  0  0  0  0  0  0  0  0  0  0
   -3.0000    0.0000    0.0000 N   0  0  0  0  0  0  0  0  0  0  0  0
   -3.7500    1.2990    0.0000 N   0  0  0  0  0  0  0  0  0  0  0  0
   -5.2500    1.2990    0.0000 N   0  0  0  0  0  0  0  0  0  0  0  0
   -6.0000    0.0000    0.0000 N   0  0  0  0  0  0  0  0  0  0  0  0
   -5.2500   -1.2990    0.0000 N   0  0  0  0  0  0  0  0  0  0  0  0
   -3.7500   -1.2990    0.0000 N   0  0  0  0  0  0  0  0  0  0  0  0
   -3.0000   -2.5981    0.0000 C   0  0  0  0  0  0  0  0  0  0  0  0
   -3.7500   -3.8971    0.0000 C   0  0  0  0  0  0  0  0  0  0  0  0
   -3.0000   -5.1962    0.0000 C   0  0  0  0  0  0  0  0  0  0  0  0
   -1.5000   -5.1962    0.0000 C   0  0  0  0  0  0  0  0  0  0  0  0
   -0.7500   -6.4952    0.0000 C   0  0  0  0  0  0  0  0  0  0  0  0
   -1.5000   -7.7942    0.0000 C   0  0  0  0  0  0  0  0  0  0  0  0
   -0.7500   -9.0933    0.0000 C   0  0  0  0  0  0  0  0  0  0  0  0
    0.7500   -9.0933    0.0000 C   0  0  0  0  0  0  0  0  0  0  0  0
    1.5000   -7.7942    0.0000 C   0  0  0  0  0  0  0  0  0  0  0  0
    0.7500   -6.4952    0.0000 C   0  0  0  0  0  0  0  0  0  0  0  0
   -0.7500   -3.8971    0.0000 C   0  0  0  0  0  0  0  0  0  0  0  0
   -1.5000   -2.5981    0.0000 C   0  0  0  0  0  0  0  0  0  0  0  0
   -0.7500    1.2990    0.0000 C   0  0  0  0  0  0  0  0  0  0  0  0
    0.7500    1.2990    0.0000 C   0  0  0  0  0  0  0  0  0  0  0  0
  1  2  1  0
  2  3  1  0
  3  4  2  0
  4  5  1  0
  5  6  2  0
  6  7  1  0
  7  8  1  0
  8  9  2  0
  9 10  1  0
 10 11  2  0
 11 12  1  0
 12 13  1  0
 13 14  2  0
 14 15  1  0
 15 16  2  0
 16 17  1  0
 17 18  2  0
 18 19  1  0
 19 20  2  0
 20 21  1  0
 21 22  2  0
 16 23  1  0
 23 24  1  0
  6 25  1  0
 25 26  2  0
 26  3  1  0
 12  7  1  0
 24 13  1  0
 22 17  1  0
M  END
>  <Title>  (55) 
idAACCgen7

$$$$

     RDKit          2D

 16 16  0  0  0  0  0  0  0  0999 V2000
    6.6478   -1.2990    0.0000 C   0  0  0  0  0  0  0  0  0  0  0  0
    5.1478   -1.2990    0.0000 C   0  0  0  0  0  0  0  0  0  0  0  0
    4.3978   -2.5981    0.0000 C   0  0  0  0  0  0  0  0  0  0  0  0
    4.3978    0.0000    0.0000 C   0  0  0  0  0  0  0  0  0  0  0  0
    2.8978    0.0000    0.0000 C   0  0  0  0  0  0  0  0  0  0  0  0
    2.5095   -1.4489    0.0000 C   0  0  0  0  0  0  0  0  0  0  0  0
    1.4489   -2.5095    0.0000 C   0  0  0  0  0  0  0  0  0  0  0  0
   -0.0000   -2.8978    0.0000 C   0  0  0  0  0  0  0  0  0  0  0  0
   -1.4489   -2.5095    0.0000 C   0  0  0  0  0  0  0  0  0  0  0  0
   -2.5095   -1.4489    0.0000 C   0  0  0  0  0  0  0  0  0  0  0  0
   -2.8978    0.0000    0.0000 C   0  0  0  0  0  0  0  0  0  0  0  0
   -2.5095    1.4489    0.0000 C   0  0  0  0  0  0  0  0  0  0  0  0
   -1.4489    2.5095    0.0000 C   0  0  0  0  0  0  0  0  0  0  0  0
    0.0000    2.8978    0.0000 C   0  0  0  0  0  0  0  0  0  0  0  0
    1.4489    2.5095    0.0000 C   0  0  0  0  0  0  0  0  0  0  0  0
    2.5095    1.4489    0.0000 C   0  0  0  0  0  0  0  0  0  0  0  0
  1  2  1  0
  2  3  1  0
  2  4  1  0
  4  5  1  0
  5  6  1  0
  6  7  1  0
  7  8  1  0
  8  9  1  0
  9 10  1  0
 10 11  1  0
 11 12  1  0
 12 13  1  0
 13 14  1  0
 14 15  1  0
 15 16  1  0
 16  5  1  0
M  END
>  <Title>  (56) 
idAACDgen7

$$$$

     RDKit          2D

 15 15  0  0  0  0  0  0  0  0999 V2000
    3.9271    0.0000    0.0000 C   0  0  0  0  0  0  0  0  0  0  0  0
    2.4271    0.0000    0.0000 C   0  0  0  0  0  0  0  0  0  0  0  0
    1.9635   -1.4266    0.0000 C   0  0  0  0  0  0  0  0  0  0  0  0
    0.7500   -2.3083    0.0000 C   0  0  0  0  0  0  0  0  0  0  0  0
   -0.7500   -2.3083    0.0000 C   0  0  0  0  0  0  0  0  0  0  0  0
   -1.9635   -1.4266    0.0000 C   0  0  0  0  0  0  0  0  0  0  0  0
   -2.4271    0.0000    0.0000 C   0  0  0  0  0  0  0  0  0  0  0  0
   -1.9635    1.4266    0.0000 C   0  0  0  0  0  0  0  0  0  0  0  0
   -0.7500    2.3083    0.0000 C   0  0  0  0  0  0  0  0  0  0  0  0
    0.7500    2.3083    0.0000 C   0  0  0  0  0  0  0  0  0  0  0  0
    1.9635    1.4266    0.0000 C   0  0  0  0  0  0  0  0  0  0  0  0
    3.1771    2.3083    0.0000 C   0  0  0  0  0  0  0  0  0  0  0  0
    2.2954    3.5218    0.0000 C   0  0  0  0  0  0  0  0  0  0  0  0
    4.0587    1.0947    0.0000 C   0  0  0  0  0  0  0  0  0  0  0  0
    4.3906    3.1899    0.0000 C   0  0  0  0  0  0  0  0  0  0  0  0
  1  2  1  0
  2  3  2  0
  3  4  1  0
  4  5  2  0
  5  6  1  0
  6  7  2  0
  7  8  1  0
  8  9  2  0
  9 10  1  0
 10 11  2  0
 11 12  1  0
 12 13  1  0
 12 14  1  0
 12 15  1  0
 11  2  1  0
M  END
>  <Title>  (57) 
idAACEgen7

$$$$

     RDKit          2D

 10 10  0  0  0  0  0  0  0  0999 V2000
    3.6929    0.0000    0.0000 O   0  0  0  0  0  0  0  0  0  0  0  0
    2.1929    0.0000    0.0000 C   0  0  0  0  0  0  0  0  0  0  0  0
    1.6798    1.4095    0.0000 C   0  0  0  0  0  0  0  0  0  0  0  0
    0.3808    2.1595    0.0000 C   0  0  0  0  0  0  0  0  0  0  0  0
   -1.0964    1.8991    0.0000 C   0  0  0  0  0  0  0  0  0  0  0  0
   -2.0606    0.7500    0.0000 C   0  0  0  0  0  0  0  0  0  0  0  0
   -2.0606   -0.7500    0.0000 C   0  0  0  0  0  0  0  0  0  0  0  0
   -1.0964   -1.8991    0.0000 C   0  0  0  0  0  0  0  0  0  0  0  0
    0.3808   -2.1595    0.0000 C   0  0  0  0  0  0  0  0  0  0  0  0
    1.6798   -1.4095    0.0000 C   0  0  0  0  0  0  0  0  0  0  0  0
  1  2  1  0
  2  3  1  0
  3  4  1  0
  4  5  1  0
  5  6  1  0
  6  7  1  0
  7  8  1  0
  8  9  1  0
  9 10  1  0
 10  2  1  0
M  END
>  <Title>  (58) 
idAACFgen7

$$$$

     RDKit          2D

 41 46  0  0  0  0  0  0  0  0999 V2000
   -2.7158   19.1308    0.0000 C   0  0  0  0  0  0  0  0  0  0  0  0
   -1.8342   17.9173    0.0000 C   0  0  0  0  0  0  0  0  0  0  0  0
   -0.3424   18.0741    0.0000 O   0  0  0  0  0  0  0  0  0  0  0  0
   -2.4443   16.5470    0.0000 O   0  0  0  0  0  0  0  0  0  0  0  0
   -1.5626   15.3335    0.0000 C   0  0  0  0  0  0  0  0  0  0  0  0
   -0.0708   15.4903    0.0000 C   0  0  0  0  0  0  0  0  0  0  0  0
    0.8109   14.2767    0.0000 C   0  0  0  0  0  0  0  0  0  0  0  0
    0.2008   12.9064    0.0000 C   0  0  0  0  0  0  0  0  0  0  0  0
   -1.2910   12.7496    0.0000 C   0  0  0  0  0  0  0  0  0  0  0  0
   -1.9011   11.3793    0.0000 C   0  0  0  0  0  0  0  0  0  0  0  0
   -1.0194   10.1658    0.0000 C   0  0  0  0  0  0  0  0  0  0  0  0
    0.4723   10.3226    0.0000 O   0  0  0  0  0  0  0  0  0  0  0  0
   -1.6296    8.7955    0.0000 N   0  0  0  0  0  0  0  0  0  0  0  0
   -0.7479    7.5819    0.0000 C   0  0  0  0  0  0  0  0  0  0  0  0
    0.7521    7.5819    0.0000 N   0  0  0  0  0  0  0  0  0  0  0  0
    1.2156    6.1554    0.0000 N   0  0  0  0  0  0  0  0  0  0  0  0
    0.0021    5.2737    0.0000 N   0  0  0  0  0  0  0  0  0  0  0  0
   -1.2114    6.1554    0.0000 N   0  0  0  0  0  0  0  0  0  0  0  0
   -2.6380    5.6918    0.0000 C   0  0  0  0  0  0  0  0  0  0  0  0
   -3.7527    6.6955    0.0000 C   0  0  0  0  0  0  0  0  0  0  0  0
   -5.1793    6.2320    0.0000 C   0  0  0  0  0  0  0  0  0  0  0  0
   -5.4912    4.7648    0.0000 C   0  0  0  0  0  0  0  0  0  0  0  0
   -6.9177    4.3013    0.0000 C   0  0  0  0  0  0  0  0  0  0  0  0
   -8.0325    5.3050    0.0000 C   0  0  0  0  0  0  0  0  0  0  0  0
   -9.4590    4.8414    0.0000 C   0  0  0  0  0  0  0  0  0  0  0  0
   -9.7709    3.3742    0.0000 C   0  0  0  0  0  0  0  0  0  0  0  0
   -8.6562    2.3705    0.0000 C   0  0  0  0  0  0  0  0  0  0  0  0
   -7.2296    2.8340    0.0000 C   0  0  0  0  0  0  0  0  0  0  0  0
   -4.3764    3.7611    0.0000 C   0  0  0  0  0  0  0  0  0  0  0  0
   -2.9499    4.2246    0.0000 C   0  0  0  0  0  0  0  0  0  0  0  0
   -1.8351    3.2209    0.0000 C   0  0  0  0  0  0  0  0  0  0  0  0
   -0.4086    3.6844    0.0000 C   0  0  0  0  0  0  0  0  0  0  0  0
    0.7062    2.6807    0.0000 C   0  0  0  0  0  0  0  0  0  0  0  0
    0.3943    1.2135    0.0000 C   0  0  0  0  0  0  0  0  0  0  0  0
    1.2760    0.0000    0.0000 C   0  0  0  0  0  0  0  0  0  0  0  0
    0.3943   -1.2135    0.0000 C   0  0  0  0  0  0  0  0  0  0  0  0
   -1.0323   -0.7500    0.0000 C   0  0  0  0  0  0  0  0  0  0  0  0
   -1.0323    0.7500    0.0000 C   0  0  0  0  0  0  0  0  0  0  0  0
   -2.1470    1.7537    0.0000 C   0  0  0  0  0  0  0  0  0  0  0  0
   -3.5736    1.2902    0.0000 O   0  0  0  0  0  0  0  0  0  0  0  0
   -2.1727   13.9632    0.0000 N   0  0  0  0  0  0  0  0  0  0  0  0
  1  2  1  0
  2  3  2  0
  2  4  1  0
  4  5  1  0
  5  6  2  0
  6  7  1  0
  7  8  2  0
  8  9  2  0
  9 10  1  0
 10 11  1  0
 11 12  2  0
 11 13  1  0
 13 14  1  0
 14 15  2  0
 15 16  1  0
 16 17  2  0
 17 18  1  0
 18 19  1  0
 19 20  2  0
 20 21  1  0
 21 22  2  0
 22 23  1  0
 23 24  2  0
 24 25  1  0
 25 26  2  0
 26 27  1  0
 27 28  2  0
 22 29  1  0
 29 30  2  0
 30 31  1  0
 31 32  2  0
 32 33  1  0
 33 34  2  0
 34 35  1  0
 35 36  2  0
 36 37  1  0
 37 38  2  0
 38 39  1  0
 39 40  2  0
  9 41  1  0
 41  5  1  0
 18 14  1  0
 30 19  1  0
 39 31  1  0
 28 23  1  0
 38 34  1  0
M  END
>  <Title>  (59) 
idAACGgen7

$$$$

     RDKit          2D

 12 12  0  0  0  0  0  0  0  0999 V2000
    4.2098   -1.2990    0.0000 C   0  0  0  0  0  0  0  0  0  0  0  0
    3.4598   -0.0000    0.0000 O   0  0  0  0  0  0  0  0  0  0  0  0
    1.9598    0.0000    0.0000 C   0  0  0  0  0  0  0  0  0  0  0  0
    1.3858   -1.3858    0.0000 C   0  0  0  0  0  0  0  0  0  0  0  0
   -0.0000   -1.9598    0.0000 C   0  0  0  0  0  0  0  0  0  0  0  0
   -1.3858   -1.3858    0.0000 C   0  0  0  0  0  0  0  0  0  0  0  0
   -1.9598    0.0000    0.0000 C   0  0  0  0  0  0  0  0  0  0  0  0
   -1.3858    1.3858    0.0000 C   0  0  0  0  0  0  0  0  0  0  0  0
   -2.4465    2.4465    0.0000 F   0  0  0  0  0  0  0  0  0  0  0  0
    0.0000    1.9598    0.0000 C   0  0  0  0  0  0  0  0  0  0  0  0
    0.0000    3.4598    0.0000 O   0  0  0  0  0  0  0  0  0  0  0  0
    1.3858    1.3858    0.0000 N   0  0  0  0  0  0  0  0  0  0  0  0
  1  2  1  0
  2  3  1  0
  3  4  2  0
  4  5  1  0
  5  6  2  0
  6  7  1  0
  7  8  2  0
  8  9  1  0
  8 10  1  0
 10 11  2  0
 10 12  1  0
 12  3  1  0
M  END
>  <Title>  (60) 
idAACHgen7

$$$$

     RDKit          2D

 59 68  0  0  0  0  0  0  0  0999 V2000
   -2.1129  -11.1403    0.0000 C   0  0  0  0  0  0  0  0  0  0  0  0
   -3.5684  -10.7774    0.0000 C   0  0  0  0  0  0  0  0  0  0  0  0
   -4.6103  -11.8564    0.0000 C   0  0  0  0  0  0  0  0  0  0  0  0
   -6.0658  -11.4935    0.0000 C   0  0  0  0  0  0  0  0  0  0  0  0
   -6.4792  -10.0516    0.0000 C   0  0  0  0  0  0  0  0  0  0  0  0
   -7.9347   -9.6888    0.0000 C   0  0  0  0  0  0  0  0  0  0  0  0
   -9.0838  -10.6529    0.0000 N   0  0  0  0  0  0  0  0  0  0  0  0
  -10.3558   -9.8581    0.0000 N   0  0  0  0  0  0  0  0  0  0  0  0
   -9.9929   -8.4026    0.0000 N   0  0  0  0  0  0  0  0  0  0  0  0
   -8.4966   -8.2980    0.0000 N   0  0  0  0  0  0  0  0  0  0  0  0
   -7.7017   -7.0259    0.0000 C   0  0  0  0  0  0  0  0  0  0  0  0
   -6.2026   -7.0783    0.0000 C   0  0  0  0  0  0  0  0  0  0  0  0
   -5.4077   -5.8062    0.0000 C   0  0  0  0  0  0  0  0  0  0  0  0
   -6.1120   -4.4818    0.0000 C   0  0  0  0  0  0  0  0  0  0  0  0
   -5.3171   -3.2097    0.0000 C   0  0  0  0  0  0  0  0  0  0  0  0
   -3.8499   -3.5216    0.0000 C   0  0  0  0  0  0  0  0  0  0  0  0
   -2.5254   -2.8174    0.0000 C   0  0  0  0  0  0  0  0  0  0  0  0
   -1.9635   -1.4266    0.0000 C   0  0  0  0  0  0  0  0  0  0  0  0
   -0.7500   -2.3083    0.0000 C   0  0  0  0  0  0  0  0  0  0  0  0
    0.7500   -2.3083    0.0000 C   0  0  0  0  0  0  0  0  0  0  0  0
    1.2135   -3.7348    0.0000 C   0  0  0  0  0  0  0  0  0  0  0  0
    2.7126   -3.7872    0.0000 C   0  0  0  0  0  0  0  0  0  0  0  0
    3.8273   -4.7909    0.0000 C   0  0  0  0  0  0  0  0  0  0  0  0
    4.0361   -6.2763    0.0000 C   0  0  0  0  0  0  0  0  0  0  0  0
    5.4269   -5.7144    0.0000 C   0  0  0  0  0  0  0  0  0  0  0  0
    6.8823   -6.0773    0.0000 C   0  0  0  0  0  0  0  0  0  0  0  0
    7.6772   -4.8052    0.0000 C   0  0  0  0  0  0  0  0  0  0  0  0
    9.1763   -4.8575    0.0000 C   0  0  0  0  0  0  0  0  0  0  0  0
    9.9712   -3.5855    0.0000 C   0  0  0  0  0  0  0  0  0  0  0  0
    9.2669   -2.2611    0.0000 C   0  0  0  0  0  0  0  0  0  0  0  0
    7.7679   -2.2087    0.0000 C   0  0  0  0  0  0  0  0  0  0  0  0
    6.9730   -3.4808    0.0000 C   0  0  0  0  0  0  0  0  0  0  0  0
    7.8465   -7.2263    0.0000 C   0  0  0  0  0  0  0  0  0  0  0  0
    7.9511   -8.7227    0.0000 C   0  0  0  0  0  0  0  0  0  0  0  0
    7.1562   -9.9948    0.0000 C   0  0  0  0  0  0  0  0  0  0  0  0
    5.7655  -10.5567    0.0000 C   0  0  0  0  0  0  0  0  0  0  0  0
    4.3100  -10.1938    0.0000 C   0  0  0  0  0  0  0  0  0  0  0  0
    3.3458   -9.0447    0.0000 C   0  0  0  0  0  0  0  0  0  0  0  0
    3.2412   -7.5484    0.0000 C   0  0  0  0  0  0  0  0  0  0  0  0
    1.8146   -8.0119    0.0000 N   0  0  0  0  0  0  0  0  0  0  0  0
    0.4238   -7.4500    0.0000 N   0  0  0  0  0  0  0  0  0  0  0  0
   -0.2804   -6.1256    0.0000 N   0  0  0  0  0  0  0  0  0  0  0  0
    0.0315   -4.6583    0.0000 N   0  0  0  0  0  0  0  0  0  0  0  0
    1.9635   -1.4266    0.0000 C   0  0  0  0  0  0  0  0  0  0  0  0
    2.4271    0.0000    0.0000 C   0  0  0  0  0  0  0  0  0  0  0  0
    1.9635    1.4266    0.0000 C   0  0  0  0  0  0  0  0  0  0  0  0
    0.7500    2.3083    0.0000 C   0  0  0  0  0  0  0  0  0  0  0  0
   -0.7500    2.3083    0.0000 C   0  0  0  0  0  0  0  0  0  0  0  0
   -1.9635    1.4266    0.0000 C   0  0  0  0  0  0  0  0  0  0  0  0
   -2.4271    0.0000    0.0000 C   0  0  0  0  0  0  0  0  0  0  0  0
   -3.6991    0.7949    0.0000 N   0  0  0  0  0  0  0  0  0  0  0  0
   -5.1845    0.5861    0.0000 N   0  0  0  0  0  0  0  0  0  0  0  0
   -6.1882   -0.5286    0.0000 N   0  0  0  0  0  0  0  0  0  0  0  0
   -6.2406   -2.0277    0.0000 N   0  0  0  0  0  0  0  0  0  0  0  0
   -7.6110   -4.4294    0.0000 C   0  0  0  0  0  0  0  0  0  0  0  0
   -8.3153   -3.1050    0.0000 O   0  0  0  0  0  0  0  0  0  0  0  0
   -8.4059   -5.7015    0.0000 N   0  0  0  0  0  0  0  0  0  0  0  0
   -5.4373   -8.9726    0.0000 C   0  0  0  0  0  0  0  0  0  0  0  0
   -3.9818   -9.3355    0.0000 C   0  0  0  0  0  0  0  0  0  0  0  0
  1  2  1  0
  2  3  2  0
  3  4  1  0
  4  5  2  0
  5  6  1  0
  6  7  2  0
  7  8  1  0
  8  9  2  0
  9 10  1  0
 10 11  1  0
 11 12  2  0
 12 13  1  0
 13 14  2  0
 14 15  1  0
 15 16  2  0
 16 17  1  0
 17 18  2  0
 18 19  1  0
 19 20  2  0
 20 21  1  0
 21 22  2  0
 22 23  1  0
 23 24  2  0
 24 25  1  0
 25 26  2  0
 26 27  1  0
 27 28  2  0
 28 29  1  0
 29 30  2  0
 30 31  1  0
 31 32  2  0
 26 33  1  0
 33 34  2  0
 34 35  1  0
 35 36  2  0
 36 37  1  0
 37 38  2  0
 38 39  1  0
 39 40  2  0
 40 41  1  0
 41 42  2  0
 42 43  1  0
 20 44  1  0
 44 45  2  0
 45 46  1  0
 46 47  2  0
 47 48  1  0
 48 49  2  0
 49 50  1  0
 50 51  2  0
 51 52  1  0
 52 53  2  0
 53 54  1  0
 14 55  1  0
 55 56  2  0
 55 57  1  0
  5 58  1  0
 58 59  2  0
 59  2  1  0
 10  6  1  0
 57 11  1  0
 54 15  1  0
 50 18  1  0
 43 21  1  0
 54 44  1  0
 39 24  1  0
 32 27  1  0
 43 33  1  0
M  END
>  <Title>  (61) 
idAACIgen7

$$$$

     RDKit          2D

 45 51  0  0  0  0  0  0  0  0999 V2000
    3.0000    0.0000    0.0000 C   0  0  0  0  0  0  0  0  0  0  0  0
    1.5000    0.0000    0.0000 C   0  0  0  0  0  0  0  0  0  0  0  0
    0.7500    1.2990    0.0000 C   0  0  0  0  0  0  0  0  0  0  0  0
   -0.7500    1.2990    0.0000 C   0  0  0  0  0  0  0  0  0  0  0  0
   -1.5000    0.0000    0.0000 C   0  0  0  0  0  0  0  0  0  0  0  0
   -3.0000    0.0000    0.0000 C   0  0  0  0  0  0  0  0  0  0  0  0
   -3.8817   -1.2135    0.0000 N   0  0  0  0  0  0  0  0  0  0  0  0
   -5.3083   -0.7500    0.0000 N   0  0  0  0  0  0  0  0  0  0  0  0
   -5.3083    0.7500    0.0000 N   0  0  0  0  0  0  0  0  0  0  0  0
   -3.8817    1.2135    0.0000 N   0  0  0  0  0  0  0  0  0  0  0  0
   -3.4182    2.6401    0.0000 C   0  0  0  0  0  0  0  0  0  0  0  0
   -1.9509    2.9520    0.0000 C   0  0  0  0  0  0  0  0  0  0  0  0
   -1.4874    4.3786    0.0000 C   0  0  0  0  0  0  0  0  0  0  0  0
   -2.4911    5.4933    0.0000 C   0  0  0  0  0  0  0  0  0  0  0  0
   -2.0276    6.9199    0.0000 N   0  0  0  0  0  0  0  0  0  0  0  0
   -0.5604    7.2317    0.0000 C   0  0  0  0  0  0  0  0  0  0  0  0
    0.4433    6.1170    0.0000 O   0  0  0  0  0  0  0  0  0  0  0  0
   -0.0968    8.6583    0.0000 C   0  0  0  0  0  0  0  0  0  0  0  0
    1.3704    8.9702    0.0000 C   0  0  0  0  0  0  0  0  0  0  0  0
    1.8339   10.3968    0.0000 C   0  0  0  0  0  0  0  0  0  0  0  0
    0.8302   11.5115    0.0000 C   0  0  0  0  0  0  0  0  0  0  0  0
   -0.6370   11.1996    0.0000 N   0  0  0  0  0  0  0  0  0  0  0  0
   -1.1005    9.7730    0.0000 C   0  0  0  0  0  0  0  0  0  0  0  0
   -3.9583    5.1814    0.0000 C   0  0  0  0  0  0  0  0  0  0  0  0
   -4.4218    3.7548    0.0000 C   0  0  0  0  0  0  0  0  0  0  0  0
   -5.8891    3.4430    0.0000 C   0  0  0  0  0  0  0  0  0  0  0  0
   -6.8928    4.5577    0.0000 C   0  0  0  0  0  0  0  0  0  0  0  0
   -8.3600    4.2458    0.0000 C   0  0  0  0  0  0  0  0  0  0  0  0
   -8.8235    2.8192    0.0000 C   0  0  0  0  0  0  0  0  0  0  0  0
  -10.2907    2.5074    0.0000 C   0  0  0  0  0  0  0  0  0  0  0  0
  -10.9008    1.1370    0.0000 N   0  0  0  0  0  0  0  0  0  0  0  0
  -12.3926    1.2938    0.0000 N   0  0  0  0  0  0  0  0  0  0  0  0
  -12.7045    2.7611    0.0000 N   0  0  0  0  0  0  0  0  0  0  0  0
  -11.4055    3.5111    0.0000 N   0  0  0  0  0  0  0  0  0  0  0  0
  -11.2487    5.0028    0.0000 C   0  0  0  0  0  0  0  0  0  0  0  0
   -9.8783    5.6129    0.0000 C   0  0  0  0  0  0  0  0  0  0  0  0
   -9.7215    7.1047    0.0000 C   0  0  0  0  0  0  0  0  0  0  0  0
  -10.9351    7.9864    0.0000 C   0  0  0  0  0  0  0  0  0  0  0  0
  -12.3054    7.3763    0.0000 C   0  0  0  0  0  0  0  0  0  0  0  0
  -12.4622    5.8845    0.0000 C   0  0  0  0  0  0  0  0  0  0  0  0
   -7.8198    1.7045    0.0000 C   0  0  0  0  0  0  0  0  0  0  0  0
   -6.3526    2.0164    0.0000 C   0  0  0  0  0  0  0  0  0  0  0  0
   -0.7500   -1.2990    0.0000 C   0  0  0  0  0  0  0  0  0  0  0  0
   -1.5000   -2.5981    0.0000 O   0  0  0  0  0  0  0  0  0  0  0  0
    0.7500   -1.2990    0.0000 N   0  0  0  0  0  0  0  0  0  0  0  0
  1  2  1  0
  2  3  2  0
  3  4  1  0
  4  5  2  0
  5  6  1  0
  6  7  2  0
  7  8  1  0
  8  9  2  0
  9 10  1  0
 10 11  1  0
 11 12  2  0
 12 13  1  0
 13 14  2  0
 14 15  1  0
 15 16  1  0
 16 17  2  0
 16 18  1  0
 18 19  2  0
 19 20  1  0
 20 21  2  0
 21 22  1  0
 22 23  2  0
 14 24  1  0
 24 25  2  0
 25 26  1  0
 26 27  2  0
 27 28  1  0
 28 29  2  0
 29 30  1  0
 30 31  2  0
 31 32  1  0
 32 33  2  0
 33 34  1  0
 34 35  1  0
 35 36  2  0
 36 37  1  0
 37 38  2  0
 38 39  1  0
 39 40  2  0
 29 41  1  0
 41 42  2  0
  5 43  1  0
 43 44  2  0
 43 45  1  0
 45  2  1  0
 10  6  1  0
 25 11  1  0
 42 26  1  0
 23 18  1  0
 34 30  1  0
 40 35  1  0
M  END
>  <Title>  (62) 
idAACJgen7

$$$$

     RDKit          2D

 20 21  0  0  0  0  0  0  0  0999 V2000
    1.8844   -7.7203    0.0000 C   0  0  0  0  0  0  0  0  0  0  0  0
    1.7667   -6.2250    0.0000 C   0  0  0  0  0  0  0  0  0  0  0  0
    0.3081   -5.8748    0.0000 C   0  0  0  0  0  0  0  0  0  0  0  0
   -0.6661   -4.7342    0.0000 C   0  0  0  0  0  0  0  0  0  0  0  0
   -0.7837   -3.2388    0.0000 C   0  0  0  0  0  0  0  0  0  0  0  0
   -2.2423   -2.8886    0.0000 C   0  0  0  0  0  0  0  0  0  0  0  0
   -2.6683   -1.4504    0.0000 O   0  0  0  0  0  0  0  0  0  0  0  0
   -3.2748   -3.9767    0.0000 O   0  0  0  0  0  0  0  0  0  0  0  0
   -0.0000   -1.9598    0.0000 C   0  0  0  0  0  0  0  0  0  0  0  0
    1.3858   -1.3858    0.0000 C   0  0  0  0  0  0  0  0  0  0  0  0
    2.8444   -1.7360    0.0000 N   0  0  0  0  0  0  0  0  0  0  0  0
    3.8185   -2.8766    0.0000 N   0  0  0  0  0  0  0  0  0  0  0  0
    3.9362   -4.3720    0.0000 N   0  0  0  0  0  0  0  0  0  0  0  0
    3.1525   -5.6509    0.0000 N   0  0  0  0  0  0  0  0  0  0  0  0
    1.9598    0.0000    0.0000 C   0  0  0  0  0  0  0  0  0  0  0  0
    1.3858    1.3858    0.0000 C   0  0  0  0  0  0  0  0  0  0  0  0
    0.0000    1.9598    0.0000 C   0  0  0  0  0  0  0  0  0  0  0  0
   -1.3858    1.3858    0.0000 C   0  0  0  0  0  0  0  0  0  0  0  0
   -1.9598    0.0000    0.0000 C   0  0  0  0  0  0  0  0  0  0  0  0
   -1.3858   -1.3858    0.0000 C   0  0  0  0  0  0  0  0  0  0  0  0
  1  2  1  0
  2  3  2  0
  3  4  1  0
  4  5  2  0
  5  6  1  0
  6  7  2  0
  6  8  1  0
  5  9  1  0
  9 10  1  0
 10 11  1  0
 11 12  2  0
 12 13  1  0
 13 14  2  0
 10 15  2  0
 15 16  1  0
 16 17  2  0
 17 18  1  0
 18 19  2  0
 19 20  1  0
 14  2  1  0
 20  9  2  0
M  END
>  <Title>  (63) 
idAACKgen7

$$$$

     RDKit          2D

 56 63  0  0  0  0  0  0  0  0999 V2000
   -5.3489    6.8056    0.0000 C   0  0  0  0  0  0  0  0  0  0  0  0
   -3.8817    6.4937    0.0000 O   0  0  0  0  0  0  0  0  0  0  0  0
   -3.4182    5.0672    0.0000 C   0  0  0  0  0  0  0  0  0  0  0  0
   -1.9916    4.6036    0.0000 C   0  0  0  0  0  0  0  0  0  0  0  0
   -1.9916    3.1036    0.0000 C   0  0  0  0  0  0  0  0  0  0  0  0
   -3.4182    2.6401    0.0000 C   0  0  0  0  0  0  0  0  0  0  0  0
   -3.8817    1.2135    0.0000 C   0  0  0  0  0  0  0  0  0  0  0  0
   -5.3083    0.7500    0.0000 N   0  0  0  0  0  0  0  0  0  0  0  0
   -5.3083   -0.7500    0.0000 N   0  0  0  0  0  0  0  0  0  0  0  0
   -3.8817   -1.2135    0.0000 N   0  0  0  0  0  0  0  0  0  0  0  0
   -3.0000    0.0000    0.0000 N   0  0  0  0  0  0  0  0  0  0  0  0
   -1.5000    0.0000    0.0000 C   0  0  0  0  0  0  0  0  0  0  0  0
   -0.7500    1.2990    0.0000 C   0  0  0  0  0  0  0  0  0  0  0  0
    0.7500    1.2990    0.0000 C   0  0  0  0  0  0  0  0  0  0  0  0
    1.5000   -0.0000    0.0000 C   0  0  0  0  0  0  0  0  0  0  0  0
    3.0000   -0.0000    0.0000 C   0  0  0  0  0  0  0  0  0  0  0  0
    3.7500    1.2990    0.0000 C   0  0  0  0  0  0  0  0  0  0  0  0
    5.2500    1.2990    0.0000 C   0  0  0  0  0  0  0  0  0  0  0  0
    6.0000   -0.0000    0.0000 C   0  0  0  0  0  0  0  0  0  0  0  0
    5.2500   -1.2990    0.0000 C   0  0  0  0  0  0  0  0  0  0  0  0
    3.7500   -1.2990    0.0000 C   0  0  0  0  0  0  0  0  0  0  0  0
    0.7500   -1.2990    0.0000 C   0  0  0  0  0  0  0  0  0  0  0  0
   -0.7500   -1.2990    0.0000 C   0  0  0  0  0  0  0  0  0  0  0  0
   -1.5000   -2.5981    0.0000 C   0  0  0  0  0  0  0  0  0  0  0  0
   -3.0000   -2.5981    0.0000 C   0  0  0  0  0  0  0  0  0  0  0  0
   -3.7500   -3.8971    0.0000 C   0  0  0  0  0  0  0  0  0  0  0  0
   -3.0000   -5.1962    0.0000 C   0  0  0  0  0  0  0  0  0  0  0  0
   -3.7500   -6.4952    0.0000 C   0  0  0  0  0  0  0  0  0  0  0  0
   -3.0000   -7.7942    0.0000 O   0  0  0  0  0  0  0  0  0  0  0  0
   -5.2500   -6.4952    0.0000 N   0  0  0  0  0  0  0  0  0  0  0  0
   -6.0000   -7.7942    0.0000 C   0  0  0  0  0  0  0  0  0  0  0  0
   -7.5000   -7.7942    0.0000 C   0  0  0  0  0  0  0  0  0  0  0  0
   -8.2500   -9.0933    0.0000 C   0  0  0  0  0  0  0  0  0  0  0  0
   -7.5000  -10.3923    0.0000 C   0  0  0  0  0  0  0  0  0  0  0  0
   -8.2500  -11.6913    0.0000 C   0  0  0  0  0  0  0  0  0  0  0  0
   -9.7500  -11.6913    0.0000 C   0  0  0  0  0  0  0  0  0  0  0  0
  -10.5000  -12.9904    0.0000 C   0  0  0  0  0  0  0  0  0  0  0  0
   -9.7500  -14.2894    0.0000 C   0  0  0  0  0  0  0  0  0  0  0  0
   -8.2500  -14.2894    0.0000 C   0  0  0  0  0  0  0  0  0  0  0  0
   -7.5000  -12.9904    0.0000 C   0  0  0  0  0  0  0  0  0  0  0  0
   -6.0000  -10.3923    0.0000 C   0  0  0  0  0  0  0  0  0  0  0  0
   -5.2500   -9.0933    0.0000 C   0  0  0  0  0  0  0  0  0  0  0  0
   -1.5000   -5.1962    0.0000 C   0  0  0  0  0  0  0  0  0  0  0  0
   -0.7500   -3.8971    0.0000 C   0  0  0  0  0  0  0  0  0  0  0  0
    0.7500   -3.8971    0.0000 C   0  0  0  0  0  0  0  0  0  0  0  0
    1.5000   -5.1962    0.0000 C   0  0  0  0  0  0  0  0  0  0  0  0
    3.0000   -5.1962    0.0000 C   0  0  0  0  0  0  0  0  0  0  0  0
    3.7500   -3.8971    0.0000 C   0  0  0  0  0  0  0  0  0  0  0  0
    5.2500   -3.8971    0.0000 C   0  0  0  0  0  0  0  0  0  0  0  0
    6.0000   -2.5981    0.0000 O   0  0  0  0  0  0  0  0  0  0  0  0
    6.0000   -5.1962    0.0000 N   0  0  0  0  0  0  0  0  0  0  0  0
    7.5000   -5.1962    0.0000 O   0  0  0  0  0  0  0  0  0  0  0  0
    3.0000   -2.5981    0.0000 C   0  0  0  0  0  0  0  0  0  0  0  0
    1.5000   -2.5981    0.0000 C   0  0  0  0  0  0  0  0  0  0  0  0
   -4.2998    3.8536    0.0000 C   0  0  0  0  0  0  0  0  0  0  0  0
   -5.7998    3.8536    0.0000 O   0  0  0  0  0  0  0  0  0  0  0  0
  1  2  1  0
  2  3  1  0
  3  4  2  0
  4  5  1  0
  5  6  2  0
  6  7  1  0
  7  8  2  0
  8  9  1  0
  9 10  2  0
 10 11  1  0
 11 12  1  0
 12 13  2  0
 13 14  1  0
 14 15  2  0
 15 16  1  0
 16 17  2  0
 17 18  1  0
 18 19  2  0
 19 20  1  0
 20 21  2  0
 15 22  1  0
 22 23  2  0
 23 24  1  0
 24 25  2  0
 25 26  1  0
 26 27  2  0
 27 28  1  0
 28 29  2  0
 28 30  1  0
 30 31  1  0
 31 32  2  0
 32 33  1  0
 33 34  2  0
 34 35  1  0
 35 36  2  0
 36 37  1  0
 37 38  2  0
 38 39  1  0
 39 40  2  0
 34 41  1  0
 41 42  2  0
 27 43  1  0
 43 44  2  0
 44 45  1  0
 45 46  2  0
 46 47  1  0
 47 48  2  0
 48 49  1  0
 49 50  2  0
 49 51  1  0
 51 52  1  0
 48 53  1  0
 53 54  1  0
  6 55  1  0
 55 56  2  0
 55  3  1  0
 11  7  1  0
 23 12  1  0
 44 24  1  0
 54 45  1  0
 21 16  1  0
 42 31  1  0
 40 35  1  0
M  END
>  <Title>  (64) 
idAACLgen7

$$$$

     RDKit          2D

 36 41  0  0  0  0  0  0  0  0999 V2000
    3.0000    0.0000    0.0000 C   0  0  0  0  0  0  0  0  0  0  0  0
    1.5000    0.0000    0.0000 C   0  0  0  0  0  0  0  0  0  0  0  0
    0.7500    1.2990    0.0000 C   0  0  0  0  0  0  0  0  0  0  0  0
   -0.7500    1.2990    0.0000 C   0  0  0  0  0  0  0  0  0  0  0  0
   -1.5000    0.0000    0.0000 C   0  0  0  0  0  0  0  0  0  0  0  0
   -3.0000    0.0000    0.0000 C   0  0  0  0  0  0  0  0  0  0  0  0
   -3.8817   -1.2135    0.0000 N   0  0  0  0  0  0  0  0  0  0  0  0
   -5.3083   -0.7500    0.0000 N   0  0  0  0  0  0  0  0  0  0  0  0
   -5.3083    0.7500    0.0000 N   0  0  0  0  0  0  0  0  0  0  0  0
   -3.8817    1.2135    0.0000 N   0  0  0  0  0  0  0  0  0  0  0  0
   -3.4182    2.6401    0.0000 C   0  0  0  0  0  0  0  0  0  0  0  0
   -1.9509    2.9520    0.0000 C   0  0  0  0  0  0  0  0  0  0  0  0
   -1.4874    4.3786    0.0000 C   0  0  0  0  0  0  0  0  0  0  0  0
   -2.4911    5.4933    0.0000 C   0  0  0  0  0  0  0  0  0  0  0  0
   -2.0276    6.9199    0.0000 C   0  0  0  0  0  0  0  0  0  0  0  0
   -2.9093    8.1334    0.0000 N   0  0  0  0  0  0  0  0  0  0  0  0
   -2.0276    9.3469    0.0000 N   0  0  0  0  0  0  0  0  0  0  0  0
   -0.6010    8.8834    0.0000 N   0  0  0  0  0  0  0  0  0  0  0  0
   -0.6010    7.3834    0.0000 N   0  0  0  0  0  0  0  0  0  0  0  0
    0.6125    6.5017    0.0000 C   0  0  0  0  0  0  0  0  0  0  0  0
    0.4557    5.0099    0.0000 C   0  0  0  0  0  0  0  0  0  0  0  0
    1.6693    4.1283    0.0000 C   0  0  0  0  0  0  0  0  0  0  0  0
    3.0396    4.7384    0.0000 C   0  0  0  0  0  0  0  0  0  0  0  0
    4.2531    3.8567    0.0000 C   0  0  0  0  0  0  0  0  0  0  0  0
    4.0963    2.3649    0.0000 C   0  0  0  0  0  0  0  0  0  0  0  0
    5.3098    1.4832    0.0000 C   0  0  0  0  0  0  0  0  0  0  0  0
    6.6802    2.0933    0.0000 C   0  0  0  0  0  0  0  0  0  0  0  0
    6.8370    3.5851    0.0000 C   0  0  0  0  0  0  0  0  0  0  0  0
    5.6234    4.4668    0.0000 C   0  0  0  0  0  0  0  0  0  0  0  0
    3.1964    6.2301    0.0000 C   0  0  0  0  0  0  0  0  0  0  0  0
    1.9829    7.1118    0.0000 C   0  0  0  0  0  0  0  0  0  0  0  0
   -3.9583    5.1814    0.0000 C   0  0  0  0  0  0  0  0  0  0  0  0
   -4.4218    3.7548    0.0000 C   0  0  0  0  0  0  0  0  0  0  0  0
   -0.7500   -1.2990    0.0000 C   0  0  0  0  0  0  0  0  0  0  0  0
   -1.5000   -2.5981    0.0000 O   0  0  0  0  0  0  0  0  0  0  0  0
    0.7500   -1.2990    0.0000 N   0  0  0  0  0  0  0  0  0  0  0  0
  1  2  1  0
  2  3  2  0
  3  4  1  0
  4  5  2  0
  5  6  1  0
  6  7  2  0
  7  8  1  0
  8  9  2  0
  9 10  1  0
 10 11  1  0
 11 12  2  0
 12 13  1  0
 13 14  2  0
 14 15  1  0
 15 16  2  0
 16 17  1  0
 17 18  2  0
 18 19  1  0
 19 20  1  0
 20 21  2  0
 21 22  1  0
 22 23  2  0
 23 24  1  0
 24 25  2  0
 25 26  1  0
 26 27  2  0
 27 28  1  0
 28 29  2  0
 23 30  1  0
 30 31  2  0
 14 32  1  0
 32 33  2  0
  5 34  1  0
 34 35  2  0
 34 36  1  0
 36  2  1  0
 10  6  1  0
 33 11  1  0
 19 15  1  0
 31 20  1  0
 29 24  1  0
M  END
>  <Title>  (65) 
idAACMgen7

$$$$

     RDKit          2D

 10 10  0  0  0  0  0  0  0  0999 V2000
    3.7500   -1.2990    0.0000 C   0  0  0  0  0  0  0  0  0  0  0  0
    3.0000    0.0000    0.0000 O   0  0  0  0  0  0  0  0  0  0  0  0
    1.5000    0.0000    0.0000 C   0  0  0  0  0  0  0  0  0  0  0  0
    0.7500   -1.2990    0.0000 C   0  0  0  0  0  0  0  0  0  0  0  0
   -0.7500   -1.2990    0.0000 C   0  0  0  0  0  0  0  0  0  0  0  0
   -1.5000    0.0000    0.0000 C   0  0  0  0  0  0  0  0  0  0  0  0
   -3.0000    0.0000    0.0000 O   0  0  0  0  0  0  0  0  0  0  0  0
   -0.7500    1.2990    0.0000 C   0  0  0  0  0  0  0  0  0  0  0  0
   -1.5000    2.5981    0.0000 O   0  0  0  0  0  0  0  0  0  0  0  0
    0.7500    1.2990    0.0000 N   0  0  0  0  0  0  0  0  0  0  0  0
  1  2  1  0
  2  3  1  0
  3  4  2  0
  4  5  1  0
  5  6  2  0
  6  7  1  0
  6  8  1  0
  8  9  2  0
  8 10  1  0
 10  3  1  0
M  END
>  <Title>  (66) 
idAACNgen7

$$$$

     RDKit          2D

 28 31  0  0  0  0  0  0  0  0999 V2000
    3.0000    0.0000    0.0000 C   0  0  0  0  0  0  0  0  0  0  0  0
    1.5000    0.0000    0.0000 C   0  0  0  0  0  0  0  0  0  0  0  0
    0.7500   -1.2990    0.0000 C   0  0  0  0  0  0  0  0  0  0  0  0
   -0.7500   -1.2990    0.0000 C   0  0  0  0  0  0  0  0  0  0  0  0
   -1.5000    0.0000    0.0000 C   0  0  0  0  0  0  0  0  0  0  0  0
   -3.0000    0.0000    0.0000 C   0  0  0  0  0  0  0  0  0  0  0  0
   -3.7500   -1.2990    0.0000 O   0  0  0  0  0  0  0  0  0  0  0  0
   -3.7500    1.2990    0.0000 N   0  0  0  0  0  0  0  0  0  0  0  0
   -5.2500    1.2990    0.0000 C   0  0  0  0  0  0  0  0  0  0  0  0
   -6.1317    0.0855    0.0000 N   0  0  0  0  0  0  0  0  0  0  0  0
   -7.5583    0.5490    0.0000 N   0  0  0  0  0  0  0  0  0  0  0  0
   -7.5583    2.0490    0.0000 N   0  0  0  0  0  0  0  0  0  0  0  0
   -6.1317    2.5126    0.0000 N   0  0  0  0  0  0  0  0  0  0  0  0
   -5.6682    3.9391    0.0000 C   0  0  0  0  0  0  0  0  0  0  0  0
   -6.5498    5.1527    0.0000 C   0  0  0  0  0  0  0  0  0  0  0  0
   -5.6682    6.3662    0.0000 C   0  0  0  0  0  0  0  0  0  0  0  0
   -4.2416    5.9027    0.0000 C   0  0  0  0  0  0  0  0  0  0  0  0
   -3.0280    6.7844    0.0000 C   0  0  0  0  0  0  0  0  0  0  0  0
   -1.6577    6.1742    0.0000 C   0  0  0  0  0  0  0  0  0  0  0  0
   -0.4442    7.0559    0.0000 C   0  0  0  0  0  0  0  0  0  0  0  0
   -0.6010    8.5477    0.0000 C   0  0  0  0  0  0  0  0  0  0  0  0
   -1.9713    9.1578    0.0000 C   0  0  0  0  0  0  0  0  0  0  0  0
   -3.1848    8.2761    0.0000 C   0  0  0  0  0  0  0  0  0  0  0  0
   -4.2416    4.4027    0.0000 C   0  0  0  0  0  0  0  0  0  0  0  0
   -3.0280    3.5210    0.0000 O   0  0  0  0  0  0  0  0  0  0  0  0
   -0.7500    1.2990    0.0000 C   0  0  0  0  0  0  0  0  0  0  0  0
   -1.5000    2.5981    0.0000 O   0  0  0  0  0  0  0  0  0  0  0  0
    0.7500    1.2990    0.0000 N   0  0  0  0  0  0  0  0  0  0  0  0
  1  2  1  0
  2  3  2  0
  3  4  1  0
  4  5  2  0
  5  6  1  0
  6  7  2  0
  6  8  1  0
  8  9  1  0
  9 10  2  0
 10 11  1  0
 11 12  2  0
 12 13  1  0
 13 14  1  0
 14 15  2  0
 15 16  1  0
 16 17  2  0
 17 18  1  0
 18 19  2  0
 19 20  1  0
 20 21  2  0
 21 22  1  0
 22 23  2  0
 17 24  1  0
 24 25  2  0
  5 26  1  0
 26 27  2  0
 26 28  1  0
 28  2  1  0
 13  9  1  0
 24 14  1  0
 23 18  1  0
M  END
>  <Title>  (67) 
idAACOgen7

$$$$

     RDKit          2D

 27 30  0  0  0  0  0  0  0  0999 V2000
    3.0000    0.0000    0.0000 C   0  0  0  0  0  0  0  0  0  0  0  0
    1.5000    0.0000    0.0000 C   0  0  0  0  0  0  0  0  0  0  0  0
    0.7500   -1.2990    0.0000 C   0  0  0  0  0  0  0  0  0  0  0  0
   -0.7500   -1.2990    0.0000 C   0  0  0  0  0  0  0  0  0  0  0  0
   -1.5000    0.0000    0.0000 C   0  0  0  0  0  0  0  0  0  0  0  0
   -0.7500    1.2990    0.0000 C   0  0  0  0  0  0  0  0  0  0  0  0
   -1.5000    2.5981    0.0000 C   0  0  0  0  0  0  0  0  0  0  0  0
   -3.0000    2.5981    0.0000 O   0  0  0  0  0  0  0  0  0  0  0  0
   -0.7500    3.8971    0.0000 N   0  0  0  0  0  0  0  0  0  0  0  0
   -1.5000    5.1962    0.0000 C   0  0  0  0  0  0  0  0  0  0  0  0
   -2.9918    5.3529    0.0000 N   0  0  0  0  0  0  0  0  0  0  0  0
   -3.3037    6.8202    0.0000 N   0  0  0  0  0  0  0  0  0  0  0  0
   -2.0046    7.5702    0.0000 N   0  0  0  0  0  0  0  0  0  0  0  0
   -0.8899    6.5665    0.0000 N   0  0  0  0  0  0  0  0  0  0  0  0
    0.5773    6.8783    0.0000 C   0  0  0  0  0  0  0  0  0  0  0  0
    1.1874    8.2487    0.0000 C   0  0  0  0  0  0  0  0  0  0  0  0
    2.6792    8.0919    0.0000 C   0  0  0  0  0  0  0  0  0  0  0  0
    2.9911    6.6246    0.0000 C   0  0  0  0  0  0  0  0  0  0  0  0
    4.3614    6.0145    0.0000 C   0  0  0  0  0  0  0  0  0  0  0  0
    4.5182    4.5228    0.0000 C   0  0  0  0  0  0  0  0  0  0  0  0
    5.8885    3.9126    0.0000 C   0  0  0  0  0  0  0  0  0  0  0  0
    7.1020    4.7943    0.0000 C   0  0  0  0  0  0  0  0  0  0  0  0
    6.9452    6.2861    0.0000 C   0  0  0  0  0  0  0  0  0  0  0  0
    5.5749    6.8962    0.0000 C   0  0  0  0  0  0  0  0  0  0  0  0
    1.6920    5.8746    0.0000 C   0  0  0  0  0  0  0  0  0  0  0  0
    1.5353    4.3829    0.0000 O   0  0  0  0  0  0  0  0  0  0  0  0
    0.7500    1.2990    0.0000 C   0  0  0  0  0  0  0  0  0  0  0  0
  1  2  1  0
  2  3  2  0
  3  4  1  0
  4  5  2  0
  5  6  1  0
  6  7  1  0
  7  8  2  0
  7  9  1  0
  9 10  1  0
 10 11  2  0
 11 12  1  0
 12 13  2  0
 13 14  1  0
 14 15  1  0
 15 16  2  0
 16 17  1  0
 17 18  2  0
 18 19  1  0
 19 20  2  0
 20 21  1  0
 21 22  2  0
 22 23  1  0
 23 24  2  0
 18 25  1  0
 25 26  2  0
  6 27  1  0
 27  2  1  0
 14 10  1  0
 25 15  1  0
 24 19  1  0
M  END
>  <Title>  (68) 
idAACPgen7

$$$$

     RDKit          2D

 47 53  0  0  0  0  0  0  0  0999 V2000
    3.4598   -0.0000    0.0000 C   0  0  0  0  0  0  0  0  0  0  0  0
    1.9598    0.0000    0.0000 C   0  0  0  0  0  0  0  0  0  0  0  0
    1.3858   -1.3858    0.0000 C   0  0  0  0  0  0  0  0  0  0  0  0
   -0.0000   -1.9598    0.0000 C   0  0  0  0  0  0  0  0  0  0  0  0
   -1.3858   -1.3858    0.0000 C   0  0  0  0  0  0  0  0  0  0  0  0
   -1.9598    0.0000    0.0000 C   0  0  0  0  0  0  0  0  0  0  0  0
   -1.3858    1.3858    0.0000 C   0  0  0  0  0  0  0  0  0  0  0  0
   -2.4465    2.4465    0.0000 C   0  0  0  0  0  0  0  0  0  0  0  0
   -3.8954    2.0583    0.0000 O   0  0  0  0  0  0  0  0  0  0  0  0
   -2.0583    3.8954    0.0000 N   0  0  0  0  0  0  0  0  0  0  0  0
   -3.1189    4.9560    0.0000 C   0  0  0  0  0  0  0  0  0  0  0  0
   -4.6004    4.7214    0.0000 N   0  0  0  0  0  0  0  0  0  0  0  0
   -5.2814    6.0579    0.0000 N   0  0  0  0  0  0  0  0  0  0  0  0
   -4.2208    7.1185    0.0000 N   0  0  0  0  0  0  0  0  0  0  0  0
   -2.8843    6.4376    0.0000 N   0  0  0  0  0  0  0  0  0  0  0  0
   -1.5477    7.1185    0.0000 C   0  0  0  0  0  0  0  0  0  0  0  0
   -0.2897    6.3016    0.0000 C   0  0  0  0  0  0  0  0  0  0  0  0
    1.0468    6.9826    0.0000 C   0  0  0  0  0  0  0  0  0  0  0  0
    1.1253    8.4805    0.0000 C   0  0  0  0  0  0  0  0  0  0  0  0
    2.4618    9.1615    0.0000 C   0  0  0  0  0  0  0  0  0  0  0  0
    3.7983    8.4805    0.0000 N   0  0  0  0  0  0  0  0  0  0  0  0
    4.8589    9.5412    0.0000 N   0  0  0  0  0  0  0  0  0  0  0  0
    4.1780   10.8777    0.0000 N   0  0  0  0  0  0  0  0  0  0  0  0
    2.6964   10.6430    0.0000 N   0  0  0  0  0  0  0  0  0  0  0  0
    1.6358   11.7037    0.0000 C   0  0  0  0  0  0  0  0  0  0  0  0
    0.1869   11.3155    0.0000 C   0  0  0  0  0  0  0  0  0  0  0  0
   -0.8738   12.3761    0.0000 C   0  0  0  0  0  0  0  0  0  0  0  0
   -0.4855   13.8250    0.0000 C   0  0  0  0  0  0  0  0  0  0  0  0
   -1.5462   14.8857    0.0000 C   0  0  0  0  0  0  0  0  0  0  0  0
   -1.1580   16.3346    0.0000 C   0  0  0  0  0  0  0  0  0  0  0  0
   -2.2186   17.3952    0.0000 C   0  0  0  0  0  0  0  0  0  0  0  0
   -3.6675   17.0070    0.0000 C   0  0  0  0  0  0  0  0  0  0  0  0
   -4.0558   15.5581    0.0000 C   0  0  0  0  0  0  0  0  0  0  0  0
   -2.9951   14.4974    0.0000 C   0  0  0  0  0  0  0  0  0  0  0  0
    0.9633   14.2132    0.0000 C   0  0  0  0  0  0  0  0  0  0  0  0
    2.0240   13.1526    0.0000 C   0  0  0  0  0  0  0  0  0  0  0  0
    3.4729   13.5408    0.0000 C   0  0  0  0  0  0  0  0  0  0  0  0
    3.8611   14.9897    0.0000 C   0  0  0  0  0  0  0  0  0  0  0  0
    5.3100   15.3779    0.0000 C   0  0  0  0  0  0  0  0  0  0  0  0
    6.3707   14.3173    0.0000 C   0  0  0  0  0  0  0  0  0  0  0  0
    5.9824   12.8684    0.0000 C   0  0  0  0  0  0  0  0  0  0  0  0
    4.5335   12.4802    0.0000 C   0  0  0  0  0  0  0  0  0  0  0  0
   -0.1327    9.2975    0.0000 C   0  0  0  0  0  0  0  0  0  0  0  0
   -1.4692    8.6165    0.0000 C   0  0  0  0  0  0  0  0  0  0  0  0
    0.0000    1.9598    0.0000 C   0  0  0  0  0  0  0  0  0  0  0  0
    0.0000    3.4598    0.0000 O   0  0  0  0  0  0  0  0  0  0  0  0
    1.3858    1.3858    0.0000 N   0  0  0  0  0  0  0  0  0  0  0  0
  1  2  1  0
  2  3  1  0
  3  4  1  0
  4  5  1  0
  5  6  1  0
  6  7  1  0
  7  8  1  0
  8  9  2  0
  8 10  1  0
 10 11  1  0
 11 12  2  0
 12 13  1  0
 13 14  2  0
 14 15  1  0
 15 16  1  0
 16 17  2  0
 17 18  1  0
 18 19  2  0
 19 20  1  0
 20 21  2  0
 21 22  1  0
 22 23  2  0
 23 24  1  0
 24 25  1  0
 25 26  2  0
 26 27  1  0
 27 28  2  0
 28 29  1  0
 29 30  2  0
 30 31  1  0
 31 32  2  0
 32 33  1  0
 33 34  2  0
 28 35  1  0
 35 36  2  0
 36 37  1  0
 37 38  2  0
 38 39  1  0
 39 40  2  0
 40 41  1  0
 41 42  2  0
 19 43  1  0
 43 44  2  0
  7 45  1  0
 45 46  2  0
 45 47  1  0
 47  2  1  0
 15 11  1  0
 44 16  1  0
 24 20  1  0
 36 25  1  0
 42 37  1  0
 34 29  1  0
M  END
>  <Title>  (69) 
idAACQgen7

$$$$

     RDKit          2D

 31 35  0  0  0  0  0  0  0  0999 V2000
    3.0000    0.0000    0.0000 C   0  0  0  0  0  0  0  0  0  0  0  0
    1.5000    0.0000    0.0000 C   0  0  0  0  0  0  0  0  0  0  0  0
    0.7500    1.2990    0.0000 C   0  0  0  0  0  0  0  0  0  0  0  0
   -0.7500    1.2990    0.0000 C   0  0  0  0  0  0  0  0  0  0  0  0
   -1.5000    0.0000    0.0000 C   0  0  0  0  0  0  0  0  0  0  0  0
   -3.0000    0.0000    0.0000 C   0  0  0  0  0  0  0  0  0  0  0  0
   -3.8817   -1.2135    0.0000 N   0  0  0  0  0  0  0  0  0  0  0  0
   -5.3083   -0.7500    0.0000 N   0  0  0  0  0  0  0  0  0  0  0  0
   -5.3083    0.7500    0.0000 N   0  0  0  0  0  0  0  0  0  0  0  0
   -3.8817    1.2135    0.0000 N   0  0  0  0  0  0  0  0  0  0  0  0
   -3.4182    2.6401    0.0000 C   0  0  0  0  0  0  0  0  0  0  0  0
   -1.9509    2.9520    0.0000 C   0  0  0  0  0  0  0  0  0  0  0  0
   -1.4874    4.3786    0.0000 C   0  0  0  0  0  0  0  0  0  0  0  0
   -2.4911    5.4933    0.0000 C   0  0  0  0  0  0  0  0  0  0  0  0
   -2.0276    6.9199    0.0000 C   0  0  0  0  0  0  0  0  0  0  0  0
   -2.9093    8.1334    0.0000 N   0  0  0  0  0  0  0  0  0  0  0  0
   -2.0276    9.3469    0.0000 N   0  0  0  0  0  0  0  0  0  0  0  0
   -0.6010    8.8834    0.0000 N   0  0  0  0  0  0  0  0  0  0  0  0
   -0.6010    7.3834    0.0000 N   0  0  0  0  0  0  0  0  0  0  0  0
    0.6125    6.5017    0.0000 C   0  0  0  0  0  0  0  0  0  0  0  0
    0.4557    5.0099    0.0000 C   0  0  0  0  0  0  0  0  0  0  0  0
    1.6693    4.1283    0.0000 C   0  0  0  0  0  0  0  0  0  0  0  0
    3.0396    4.7384    0.0000 C   0  0  0  0  0  0  0  0  0  0  0  0
    3.1964    6.2301    0.0000 C   0  0  0  0  0  0  0  0  0  0  0  0
    1.9829    7.1118    0.0000 C   0  0  0  0  0  0  0  0  0  0  0  0
   -3.9583    5.1814    0.0000 C   0  0  0  0  0  0  0  0  0  0  0  0
   -4.9620    6.2961    0.0000 O   0  0  0  0  0  0  0  0  0  0  0  0
   -4.4218    3.7548    0.0000 N   0  0  0  0  0  0  0  0  0  0  0  0
   -0.7500   -1.2990    0.0000 C   0  0  0  0  0  0  0  0  0  0  0  0
   -1.5000   -2.5981    0.0000 O   0  0  0  0  0  0  0  0  0  0  0  0
    0.7500   -1.2990    0.0000 N   0  0  0  0  0  0  0  0  0  0  0  0
  1  2  1  0
  2  3  2  0
  3  4  1  0
  4  5  2  0
  5  6  1  0
  6  7  2  0
  7  8  1  0
  8  9  2  0
  9 10  1  0
 10 11  1  0
 11 12  2  0
 12 13  1  0
 13 14  2  0
 14 15  1  0
 15 16  2  0
 16 17  1  0
 17 18  2  0
 18 19  1  0
 19 20  1  0
 20 21  2  0
 21 22  1  0
 22 23  2  0
 23 24  1  0
 24 25  2  0
 14 26  1  0
 26 27  2  0
 26 28  1  0
  5 29  1  0
 29 30  2  0
 29 31  1  0
 31  2  1  0
 10  6  1  0
 28 11  1  0
 19 15  1  0
 25 20  1  0
M  END
>  <Title>  (70) 
idAACRgen7

$$$$

     RDKit          2D

 20 22  0  0  0  0  0  0  0  0999 V2000
    3.0000    0.0000    0.0000 C   0  0  0  0  0  0  0  0  0  0  0  0
    1.5000    0.0000    0.0000 C   0  0  0  0  0  0  0  0  0  0  0  0
    0.7500   -1.2990    0.0000 C   0  0  0  0  0  0  0  0  0  0  0  0
   -0.7500   -1.2990    0.0000 C   0  0  0  0  0  0  0  0  0  0  0  0
   -1.5000    0.0000    0.0000 C   0  0  0  0  0  0  0  0  0  0  0  0
   -3.0000    0.0000    0.0000 C   0  0  0  0  0  0  0  0  0  0  0  0
   -3.8817   -1.2135    0.0000 N   0  0  0  0  0  0  0  0  0  0  0  0
   -5.3083   -0.7500    0.0000 N   0  0  0  0  0  0  0  0  0  0  0  0
   -5.3083    0.7500    0.0000 N   0  0  0  0  0  0  0  0  0  0  0  0
   -3.8817    1.2135    0.0000 N   0  0  0  0  0  0  0  0  0  0  0  0
   -3.4182    2.6401    0.0000 C   0  0  0  0  0  0  0  0  0  0  0  0
   -1.9509    2.9520    0.0000 C   0  0  0  0  0  0  0  0  0  0  0  0
   -1.4874    4.3786    0.0000 C   0  0  0  0  0  0  0  0  0  0  0  0
   -2.4911    5.4933    0.0000 C   0  0  0  0  0  0  0  0  0  0  0  0
   -2.0276    6.9199    0.0000 C   0  0  0  0  0  0  0  0  0  0  0  0
   -3.9583    5.1814    0.0000 C   0  0  0  0  0  0  0  0  0  0  0  0
   -4.9620    6.2961    0.0000 O   0  0  0  0  0  0  0  0  0  0  0  0
   -4.4218    3.7548    0.0000 N   0  0  0  0  0  0  0  0  0  0  0  0
   -0.7500    1.2990    0.0000 C   0  0  0  0  0  0  0  0  0  0  0  0
    0.7500    1.2990    0.0000 C   0  0  0  0  0  0  0  0  0  0  0  0
  1  2  1  0
  2  3  2  0
  3  4  1  0
  4  5  2  0
  5  6  1  0
  6  7  2  0
  7  8  1  0
  8  9  2  0
  9 10  1  0
 10 11  1  0
 11 12  2  0
 12 13  1  0
 13 14  2  0
 14 15  1  0
 14 16  1  0
 16 17  2  0
 16 18  1  0
  5 19  1  0
 19 20  2  0
 20  2  1  0
 10  6  1  0
 18 11  1  0
M  END
>  <Title>  (71) 
idAACSgen7

$$$$

     RDKit          2D

 33 37  0  0  0  0  0  0  0  0999 V2000
    3.0000    0.0000    0.0000 C   0  0  0  0  0  0  0  0  0  0  0  0
    1.5000    0.0000    0.0000 C   0  0  0  0  0  0  0  0  0  0  0  0
    0.7500   -1.2990    0.0000 C   0  0  0  0  0  0  0  0  0  0  0  0
   -0.7500   -1.2990    0.0000 C   0  0  0  0  0  0  0  0  0  0  0  0
   -1.5000    0.0000    0.0000 C   0  0  0  0  0  0  0  0  0  0  0  0
   -3.0000    0.0000    0.0000 C   0  0  0  0  0  0  0  0  0  0  0  0
   -3.7500   -1.2990    0.0000 O   0  0  0  0  0  0  0  0  0  0  0  0
   -3.7500    1.2990    0.0000 N   0  0  0  0  0  0  0  0  0  0  0  0
   -5.2500    1.2990    0.0000 C   0  0  0  0  0  0  0  0  0  0  0  0
   -6.1317    0.0855    0.0000 N   0  0  0  0  0  0  0  0  0  0  0  0
   -7.5583    0.5490    0.0000 N   0  0  0  0  0  0  0  0  0  0  0  0
   -7.5583    2.0490    0.0000 N   0  0  0  0  0  0  0  0  0  0  0  0
   -6.1317    2.5126    0.0000 N   0  0  0  0  0  0  0  0  0  0  0  0
   -5.6682    3.9391    0.0000 C   0  0  0  0  0  0  0  0  0  0  0  0
   -6.5498    5.1527    0.0000 C   0  0  0  0  0  0  0  0  0  0  0  0
   -5.6682    6.3662    0.0000 C   0  0  0  0  0  0  0  0  0  0  0  0
   -4.2416    5.9027    0.0000 C   0  0  0  0  0  0  0  0  0  0  0  0
   -3.0280    6.7844    0.0000 C   0  0  0  0  0  0  0  0  0  0  0  0
   -3.0280    8.2844    0.0000 N   0  0  0  0  0  0  0  0  0  0  0  0
   -1.6015    8.7479    0.0000 N   0  0  0  0  0  0  0  0  0  0  0  0
   -0.7198    7.5344    0.0000 N   0  0  0  0  0  0  0  0  0  0  0  0
   -1.6015    6.3208    0.0000 N   0  0  0  0  0  0  0  0  0  0  0  0
   -1.1379    4.8942    0.0000 C   0  0  0  0  0  0  0  0  0  0  0  0
   -2.1416    3.7795    0.0000 C   0  0  0  0  0  0  0  0  0  0  0  0
   -1.6781    2.3529    0.0000 C   0  0  0  0  0  0  0  0  0  0  0  0
   -0.2109    2.0411    0.0000 C   0  0  0  0  0  0  0  0  0  0  0  0
    0.7928    3.1558    0.0000 C   0  0  0  0  0  0  0  0  0  0  0  0
    0.3293    4.5824    0.0000 C   0  0  0  0  0  0  0  0  0  0  0  0
   -4.2416    4.4027    0.0000 C   0  0  0  0  0  0  0  0  0  0  0  0
   -3.0280    3.5210    0.0000 O   0  0  0  0  0  0  0  0  0  0  0  0
   -0.7500    1.2990    0.0000 N   0  0  0  0  0  0  0  0  0  0  0  0
    0.7500    1.2990    0.0000 C   0  0  0  0  0  0  0  0  0  0  0  0
    1.5000    2.5981    0.0000 O   0  0  0  0  0  0  0  0  0  0  0  0
  1  2  1  0
  2  3  2  0
  3  4  1  0
  4  5  2  0
  5  6  1  0
  6  7  2  0
  6  8  1  0
  8  9  1  0
  9 10  2  0
 10 11  1  0
 11 12  2  0
 12 13  1  0
 13 14  1  0
 14 15  2  0
 15 16  1  0
 16 17  2  0
 17 18  1  0
 18 19  2  0
 19 20  1  0
 20 21  2  0
 21 22  1  0
 22 23  1  0
 23 24  2  0
 24 25  1  0
 25 26  2  0
 26 27  1  0
 27 28  2  0
 17 29  1  0
 29 30  2  0
  5 31  1  0
 31 32  1  0
 32 33  2  0
 32  2  1  0
 13  9  1  0
 29 14  1  0
 22 18  1  0
 28 23  1  0
M  END
>  <Title>  (72) 
idAACTgen7

$$$$

     RDKit          2D

 23 25  0  0  0  0  0  0  0  0999 V2000
    3.0000    0.0000    0.0000 C   0  0  0  0  0  0  0  0  0  0  0  0
    1.5000    0.0000    0.0000 C   0  0  0  0  0  0  0  0  0  0  0  0
    0.7500   -1.2990    0.0000 C   0  0  0  0  0  0  0  0  0  0  0  0
   -0.7500   -1.2990    0.0000 C   0  0  0  0  0  0  0  0  0  0  0  0
   -1.5000    0.0000    0.0000 C   0  0  0  0  0  0  0  0  0  0  0  0
   -3.0000    0.0000    0.0000 C   0  0  0  0  0  0  0  0  0  0  0  0
   -3.7500   -1.2990    0.0000 O   0  0  0  0  0  0  0  0  0  0  0  0
   -3.7500    1.2990    0.0000 N   0  0  0  0  0  0  0  0  0  0  0  0
   -5.2500    1.2990    0.0000 C   0  0  0  0  0  0  0  0  0  0  0  0
   -6.1317    0.0855    0.0000 N   0  0  0  0  0  0  0  0  0  0  0  0
   -7.5583    0.5490    0.0000 N   0  0  0  0  0  0  0  0  0  0  0  0
   -7.5583    2.0490    0.0000 N   0  0  0  0  0  0  0  0  0  0  0  0
   -6.1317    2.5126    0.0000 N   0  0  0  0  0  0  0  0  0  0  0  0
   -5.6682    3.9391    0.0000 C   0  0  0  0  0  0  0  0  0  0  0  0
   -4.2009    4.2510    0.0000 C   0  0  0  0  0  0  0  0  0  0  0  0
   -3.7374    5.6776    0.0000 C   0  0  0  0  0  0  0  0  0  0  0  0
   -4.7411    6.7923    0.0000 C   0  0  0  0  0  0  0  0  0  0  0  0
   -4.2776    8.2189    0.0000 C   0  0  0  0  0  0  0  0  0  0  0  0
   -6.2083    6.4805    0.0000 C   0  0  0  0  0  0  0  0  0  0  0  0
   -7.2120    7.5952    0.0000 O   0  0  0  0  0  0  0  0  0  0  0  0
   -6.6718    5.0539    0.0000 N   0  0  0  0  0  0  0  0  0  0  0  0
   -0.7500    1.2990    0.0000 C   0  0  0  0  0  0  0  0  0  0  0  0
    0.7500    1.2990    0.0000 C   0  0  0  0  0  0  0  0  0  0  0  0
  1  2  1  0
  2  3  2  0
  3  4  1  0
  4  5  2  0
  5  6  1  0
  6  7  2  0
  6  8  1  0
  8  9  1  0
  9 10  2  0
 10 11  1  0
 11 12  2  0
 12 13  1  0
 13 14  1  0
 14 15  2  0
 15 16  1  0
 16 17  2  0
 17 18  1  0
 17 19  1  0
 19 20  2  0
 19 21  1  0
  5 22  1  0
 22 23  1  0
 23  2  1  0
 13  9  1  0
 21 14  1  0
M  END
>  <Title>  (73) 
idAACUgen7

$$$$

     RDKit          2D

 40 45  0  0  0  0  0  0  0  0999 V2000
    3.0000    0.0000    0.0000 C   0  0  0  0  0  0  0  0  0  0  0  0
    1.5000    0.0000    0.0000 C   0  0  0  0  0  0  0  0  0  0  0  0
    0.7500   -1.2990    0.0000 C   0  0  0  0  0  0  0  0  0  0  0  0
   -0.7500   -1.2990    0.0000 C   0  0  0  0  0  0  0  0  0  0  0  0
   -1.5000    0.0000    0.0000 C   0  0  0  0  0  0  0  0  0  0  0  0
   -3.0000    0.0000    0.0000 C   0  0  0  0  0  0  0  0  0  0  0  0
   -3.7500   -1.2990    0.0000 O   0  0  0  0  0  0  0  0  0  0  0  0
   -3.7500    1.2990    0.0000 N   0  0  0  0  0  0  0  0  0  0  0  0
   -5.2500    1.2990    0.0000 C   0  0  0  0  0  0  0  0  0  0  0  0
   -6.1317    0.0855    0.0000 N   0  0  0  0  0  0  0  0  0  0  0  0
   -7.5583    0.5490    0.0000 N   0  0  0  0  0  0  0  0  0  0  0  0
   -7.5583    2.0490    0.0000 N   0  0  0  0  0  0  0  0  0  0  0  0
   -6.1317    2.5126    0.0000 N   0  0  0  0  0  0  0  0  0  0  0  0
   -5.6682    3.9391    0.0000 N   0  0  0  0  0  0  0  0  0  0  0  0
   -4.2009    4.2510    0.0000 N   0  0  0  0  0  0  0  0  0  0  0  0
   -3.7374    5.6776    0.0000 N   0  0  0  0  0  0  0  0  0  0  0  0
   -4.7411    6.7923    0.0000 N   0  0  0  0  0  0  0  0  0  0  0  0
   -6.2083    6.4805    0.0000 N   0  0  0  0  0  0  0  0  0  0  0  0
   -6.6718    5.0539    0.0000 N   0  0  0  0  0  0  0  0  0  0  0  0
   -8.1391    4.7420    0.0000 C   0  0  0  0  0  0  0  0  0  0  0  0
   -9.1428    5.8567    0.0000 C   0  0  0  0  0  0  0  0  0  0  0  0
  -10.6100    5.5448    0.0000 C   0  0  0  0  0  0  0  0  0  0  0  0
  -11.0735    4.1183    0.0000 C   0  0  0  0  0  0  0  0  0  0  0  0
  -12.5407    3.8064    0.0000 C   0  0  0  0  0  0  0  0  0  0  0  0
  -13.5444    4.9211    0.0000 C   0  0  0  0  0  0  0  0  0  0  0  0
  -15.0117    4.6092    0.0000 C   0  0  0  0  0  0  0  0  0  0  0  0
  -15.4752    3.1827    0.0000 C   0  0  0  0  0  0  0  0  0  0  0  0
  -14.4715    2.0679    0.0000 C   0  0  0  0  0  0  0  0  0  0  0  0
  -13.0043    2.3798    0.0000 C   0  0  0  0  0  0  0  0  0  0  0  0
  -12.0006    1.2651    0.0000 C   0  0  0  0  0  0  0  0  0  0  0  0
  -12.4641   -0.1615    0.0000 C   0  0  0  0  0  0  0  0  0  0  0  0
  -11.4604   -1.2762    0.0000 C   0  0  0  0  0  0  0  0  0  0  0  0
   -9.9932   -0.9643    0.0000 C   0  0  0  0  0  0  0  0  0  0  0  0
   -9.5296    0.4622    0.0000 C   0  0  0  0  0  0  0  0  0  0  0  0
  -10.5333    1.5770    0.0000 C   0  0  0  0  0  0  0  0  0  0  0  0
  -10.0698    3.0035    0.0000 C   0  0  0  0  0  0  0  0  0  0  0  0
   -8.6026    3.3154    0.0000 C   0  0  0  0  0  0  0  0  0  0  0  0
   -0.7500    1.2990    0.0000 C   0  0  0  0  0  0  0  0  0  0  0  0
   -1.5000    2.5981    0.0000 O   0  0  0  0  0  0  0  0  0  0  0  0
    0.7500    1.2990    0.0000 N   0  0  0  0  0  0  0  0  0  0  0  0
  1  2  1  0
  2  3  2  0
  3  4  1  0
  4  5  2  0
  5  6  1  0
  6  7  2  0
  6  8  1  0
  8  9  1  0
  9 10  2  0
 10 11  1  0
 11 12  2  0
 12 13  1  0
 13 14  1  0
 14 15  1  0
 15 16  2  0
 16 17  1  0
 17 18  2  0
 18 19  1  0
 19 20  1  0
 20 21  2  0
 21 22  1  0
 22 23  2  0
 23 24  1  0
 24 25  2  0
 25 26  1  0
 26 27  2  0
 27 28  1  0
 28 29  2  0
 29 30  1  0
 30 31  2  0
 31 32  1  0
 32 33  2  0
 33 34  1  0
 34 35  2  0
 23 36  1  0
 36 37  2  0
  5 38  1  0
 38 39  2  0
 38 40  1  0
 40  2  1  0
 13  9  1  0
 19 14  1  0
 37 20  1  0
 29 24  1  0
 35 30  1  0
M  END
>  <Title>  (74) 
idAACVgen7

$$$$

     RDKit          2D

 24 24  0  0  0  0  0  0  0  0999 V2000
    8.8934    0.5490    0.0000 C   0  0  0  0  0  0  0  0  0  0  0  0
    7.5944    1.2990    0.0000 C   0  0  0  0  0  0  0  0  0  0  0  0
    6.2953    2.0490    0.0000 C   0  0  0  0  0  0  0  0  0  0  0  0
    8.3444    2.5981    0.0000 C   0  0  0  0  0  0  0  0  0  0  0  0
    6.8444    0.0000    0.0000 C   0  0  0  0  0  0  0  0  0  0  0  0
    5.3444    0.0000    0.0000 C   0  0  0  0  0  0  0  0  0  0  0  0
    5.3444   -1.5000    0.0000 C   0  0  0  0  0  0  0  0  0  0  0  0
    5.3444    1.5000    0.0000 C   0  0  0  0  0  0  0  0  0  0  0  0
    3.8444    0.0000    0.0000 C   0  0  0  0  0  0  0  0  0  0  0  0
    3.5517   -1.4712    0.0000 C   0  0  0  0  0  0  0  0  0  0  0  0
    2.7184   -2.7184    0.0000 C   0  0  0  0  0  0  0  0  0  0  0  0
    1.4712   -3.5517    0.0000 C   0  0  0  0  0  0  0  0  0  0  0  0
   -0.0000   -3.8444    0.0000 C   0  0  0  0  0  0  0  0  0  0  0  0
   -1.4712   -3.5517    0.0000 C   0  0  0  0  0  0  0  0  0  0  0  0
   -2.7184   -2.7184    0.0000 C   0  0  0  0  0  0  0  0  0  0  0  0
   -3.5517   -1.4712    0.0000 C   0  0  0  0  0  0  0  0  0  0  0  0
   -3.8444    0.0000    0.0000 C   0  0  0  0  0  0  0  0  0  0  0  0
   -3.5517    1.4712    0.0000 C   0  0  0  0  0  0  0  0  0  0  0  0
   -2.7184    2.7184    0.0000 C   0  0  0  0  0  0  0  0  0  0  0  0
   -1.4712    3.5517    0.0000 C   0  0  0  0  0  0  0  0  0  0  0  0
    0.0000    3.8444    0.0000 C   0  0  0  0  0  0  0  0  0  0  0  0
    1.4712    3.5517    0.0000 C   0  0  0  0  0  0  0  0  0  0  0  0
    2.7184    2.7184    0.0000 C   0  0  0  0  0  0  0  0  0  0  0  0
    3.5517    1.4712    0.0000 C   0  0  0  0  0  0  0  0  0  0  0  0
  1  2  1  0
  2  3  1  0
  2  4  1  0
  2  5  1  0
  5  6  1  0
  6  7  1  0
  6  8  1  0
  6  9  1  0
  9 10  2  0
 10 11  1  0
 11 12  2  0
 12 13  1  0
 13 14  2  0
 14 15  1  0
 15 16  2  0
 16 17  1  0
 17 18  2  0
 18 19  1  0
 19 20  2  0
 20 21  1  0
 21 22  2  0
 22 23  1  0
 23 24  2  0
 24  9  1  0
M  END
>  <Title>  (75) 
idAACWgen7

$$$$

     RDKit          2D

 27 29  0  0  0  0  0  0  0  0999 V2000
    3.7500   -1.2990    0.0000 C   0  0  0  0  0  0  0  0  0  0  0  0
    3.0000    0.0000    0.0000 O   0  0  0  0  0  0  0  0  0  0  0  0
    1.5000    0.0000    0.0000 C   0  0  0  0  0  0  0  0  0  0  0  0
    0.7500   -1.2990    0.0000 C   0  0  0  0  0  0  0  0  0  0  0  0
   -0.7500   -1.2990    0.0000 C   0  0  0  0  0  0  0  0  0  0  0  0
   -1.5000    0.0000    0.0000 C   0  0  0  0  0  0  0  0  0  0  0  0
   -3.0000    0.0000    0.0000 O   0  0  0  0  0  0  0  0  0  0  0  0
   -3.7500    1.2990    0.0000 C   0  0  0  0  0  0  0  0  0  0  0  0
   -3.0000    2.5981    0.0000 O   0  0  0  0  0  0  0  0  0  0  0  0
   -5.2500    1.2990    0.0000 C   0  0  0  0  0  0  0  0  0  0  0  0
   -6.0000    2.5981    0.0000 C   0  0  0  0  0  0  0  0  0  0  0  0
   -7.5000    2.5981    0.0000 C   0  0  0  0  0  0  0  0  0  0  0  0
   -8.2500    1.2990    0.0000 C   0  0  0  0  0  0  0  0  0  0  0  0
   -9.7500    1.2990    0.0000 C   0  0  0  0  0  0  0  0  0  0  0  0
  -10.5000    0.0000    0.0000 O   0  0  0  0  0  0  0  0  0  0  0  0
  -10.5000    2.5981    0.0000 N   0  0  0  0  0  0  0  0  0  0  0  0
  -12.0000    2.5981    0.0000 C   0  0  0  0  0  0  0  0  0  0  0  0
  -12.7500    3.8971    0.0000 C   0  0  0  0  0  0  0  0  0  0  0  0
  -14.2500    3.8971    0.0000 C   0  0  0  0  0  0  0  0  0  0  0  0
  -15.0000    2.5981    0.0000 C   0  0  0  0  0  0  0  0  0  0  0  0
  -14.2500    1.2990    0.0000 C   0  0  0  0  0  0  0  0  0  0  0  0
  -12.7500    1.2990    0.0000 C   0  0  0  0  0  0  0  0  0  0  0  0
   -7.5000    0.0000    0.0000 C   0  0  0  0  0  0  0  0  0  0  0  0
   -6.0000    0.0000    0.0000 C   0  0  0  0  0  0  0  0  0  0  0  0
   -0.7500    1.2990    0.0000 C   0  0  0  0  0  0  0  0  0  0  0  0
   -1.5000    2.5981    0.0000 O   0  0  0  0  0  0  0  0  0  0  0  0
    0.7500    1.2990    0.0000 N   0  0  0  0  0  0  0  0  0  0  0  0
  1  2  1  0
  2  3  1  0
  3  4  2  0
  4  5  1  0
  5  6  2  0
  6  7  1  0
  7  8  1  0
  8  9  2  0
  8 10  1  0
 10 11  2  0
 11 12  1  0
 12 13  2  0
 13 14  1  0
 14 15  2  0
 14 16  1  0
 16 17  1  0
 17 18  2  0
 18 19  1  0
 19 20  2  0
 20 21  1  0
 21 22  2  0
 13 23  1  0
 23 24  2  0
  6 25  1  0
 25 26  2  0
 25 27  1  0
 27  3  1  0
 24 10  1  0
 22 17  1  0
M  END
>  <Title>  (76) 
idAACXgen7

$$$$

     RDKit          2D

 15 16  0  0  0  0  0  0  0  0999 V2000
    3.4233    5.9293    0.0000 C   0  0  0  0  0  0  0  0  0  0  0  0
    2.6733    4.6303    0.0000 C   0  0  0  0  0  0  0  0  0  0  0  0
    3.5183    3.3909    0.0000 C   0  0  0  0  0  0  0  0  0  0  0  0
    3.0761    1.9576    0.0000 C   0  0  0  0  0  0  0  0  0  0  0  0
    1.6798    1.4095    0.0000 C   0  0  0  0  0  0  0  0  0  0  0  0
    2.1929    0.0000    0.0000 C   0  0  0  0  0  0  0  0  0  0  0  0
    1.6798   -1.4095    0.0000 C   0  0  0  0  0  0  0  0  0  0  0  0
    0.3808   -2.1595    0.0000 C   0  0  0  0  0  0  0  0  0  0  0  0
   -1.0964   -1.8991    0.0000 C   0  0  0  0  0  0  0  0  0  0  0  0
   -2.0606   -0.7500    0.0000 C   0  0  0  0  0  0  0  0  0  0  0  0
   -2.0606    0.7500    0.0000 C   0  0  0  0  0  0  0  0  0  0  0  0
   -1.0964    1.8991    0.0000 C   0  0  0  0  0  0  0  0  0  0  0  0
    0.3808    2.1595    0.0000 N   0  0  0  0  0  0  0  0  0  0  0  0
    0.1572    3.6428    0.0000 C   0  0  0  0  0  0  0  0  0  0  0  0
    1.1775    4.7424    0.0000 C   0  0  0  0  0  0  0  0  0  0  0  0
  1  2  1  0
  2  3  2  0
  3  4  1  0
  4  5  2  0
  5  6  1  0
  6  7  2  0
  7  8  1  0
  8  9  2  0
  9 10  1  0
 10 11  2  0
 11 12  1  0
 12 13  1  0
 13 14  1  0
 14 15  1  0
 15  2  1  0
 13  5  1  0
M  END
>  <Title>  (77) 
idAACYgen7

$$$$

     RDKit          2D

 64 74  0  0  0  0  0  0  0  0999 V2000
    3.0000    0.0000    0.0000 C   0  0  0  0  0  0  0  0  0  0  0  0
    1.5000    0.0000    0.0000 C   0  0  0  0  0  0  0  0  0  0  0  0
    0.7500   -1.2990    0.0000 C   0  0  0  0  0  0  0  0  0  0  0  0
   -0.7500   -1.2990    0.0000 C   0  0  0  0  0  0  0  0  0  0  0  0
   -1.5000    0.0000    0.0000 C   0  0  0  0  0  0  0  0  0  0  0  0
   -3.0000    0.0000    0.0000 C   0  0  0  0  0  0  0  0  0  0  0  0
   -3.8817   -1.2135    0.0000 N   0  0  0  0  0  0  0  0  0  0  0  0
   -5.3083   -0.7500    0.0000 N   0  0  0  0  0  0  0  0  0  0  0  0
   -5.3083    0.7500    0.0000 N   0  0  0  0  0  0  0  0  0  0  0  0
   -3.8817    1.2135    0.0000 N   0  0  0  0  0  0  0  0  0  0  0  0
   -3.4182    2.6401    0.0000 C   0  0  0  0  0  0  0  0  0  0  0  0
   -1.9509    2.9520    0.0000 C   0  0  0  0  0  0  0  0  0  0  0  0
   -1.4874    4.3786    0.0000 C   0  0  0  0  0  0  0  0  0  0  0  0
   -2.4911    5.4933    0.0000 C   0  0  0  0  0  0  0  0  0  0  0  0
   -2.0276    6.9199    0.0000 C   0  0  0  0  0  0  0  0  0  0  0  0
   -2.9093    8.1334    0.0000 N   0  0  0  0  0  0  0  0  0  0  0  0
   -2.0276    9.3469    0.0000 N   0  0  0  0  0  0  0  0  0  0  0  0
   -0.6010    8.8834    0.0000 N   0  0  0  0  0  0  0  0  0  0  0  0
   -0.6010    7.3834    0.0000 N   0  0  0  0  0  0  0  0  0  0  0  0
    0.6125    6.5017    0.0000 C   0  0  0  0  0  0  0  0  0  0  0  0
    0.4557    5.0099    0.0000 C   0  0  0  0  0  0  0  0  0  0  0  0
    1.6693    4.1283    0.0000 C   0  0  0  0  0  0  0  0  0  0  0  0
    3.0396    4.7384    0.0000 C   0  0  0  0  0  0  0  0  0  0  0  0
    3.1964    6.2301    0.0000 C   0  0  0  0  0  0  0  0  0  0  0  0
    1.9829    7.1118    0.0000 C   0  0  0  0  0  0  0  0  0  0  0  0
   -3.9583    5.1814    0.0000 C   0  0  0  0  0  0  0  0  0  0  0  0
   -4.4218    3.7548    0.0000 C   0  0  0  0  0  0  0  0  0  0  0  0
   -5.8891    3.4430    0.0000 C   0  0  0  0  0  0  0  0  0  0  0  0
   -6.4992    2.0726    0.0000 N   0  0  0  0  0  0  0  0  0  0  0  0
   -7.9910    2.2294    0.0000 N   0  0  0  0  0  0  0  0  0  0  0  0
   -8.3028    3.6967    0.0000 N   0  0  0  0  0  0  0  0  0  0  0  0
   -7.0038    4.4467    0.0000 N   0  0  0  0  0  0  0  0  0  0  0  0
   -6.8470    5.9384    0.0000 C   0  0  0  0  0  0  0  0  0  0  0  0
   -5.4767    6.5485    0.0000 C   0  0  0  0  0  0  0  0  0  0  0  0
   -5.3199    8.0403    0.0000 C   0  0  0  0  0  0  0  0  0  0  0  0
   -6.5334    8.9220    0.0000 C   0  0  0  0  0  0  0  0  0  0  0  0
   -6.3766   10.4138    0.0000 C   0  0  0  0  0  0  0  0  0  0  0  0
   -5.0776   11.1638    0.0000 N   0  0  0  0  0  0  0  0  0  0  0  0
   -5.3894   12.6310    0.0000 N   0  0  0  0  0  0  0  0  0  0  0  0
   -6.8812   12.7878    0.0000 N   0  0  0  0  0  0  0  0  0  0  0  0
   -7.4913   11.4175    0.0000 N   0  0  0  0  0  0  0  0  0  0  0  0
   -8.9586   11.1056    0.0000 C   0  0  0  0  0  0  0  0  0  0  0  0
   -9.4221    9.6790    0.0000 C   0  0  0  0  0  0  0  0  0  0  0  0
  -10.8893    9.3672    0.0000 C   0  0  0  0  0  0  0  0  0  0  0  0
  -11.8930   10.4819    0.0000 C   0  0  0  0  0  0  0  0  0  0  0  0
  -11.4295   11.9085    0.0000 C   0  0  0  0  0  0  0  0  0  0  0  0
   -9.9623   12.2203    0.0000 C   0  0  0  0  0  0  0  0  0  0  0  0
   -7.9037    8.3119    0.0000 C   0  0  0  0  0  0  0  0  0  0  0  0
   -8.0605    6.8201    0.0000 C   0  0  0  0  0  0  0  0  0  0  0  0
   -9.4308    6.2100    0.0000 C   0  0  0  0  0  0  0  0  0  0  0  0
  -10.6444    7.0917    0.0000 C   0  0  0  0  0  0  0  0  0  0  0  0
  -12.0147    6.4816    0.0000 C   0  0  0  0  0  0  0  0  0  0  0  0
  -12.1715    4.9898    0.0000 C   0  0  0  0  0  0  0  0  0  0  0  0
  -13.5418    4.3797    0.0000 C   0  0  0  0  0  0  0  0  0  0  0  0
  -14.7553    5.2614    0.0000 C   0  0  0  0  0  0  0  0  0  0  0  0
  -16.1256    4.6513    0.0000 C   0  0  0  0  0  0  0  0  0  0  0  0
  -16.2824    3.1595    0.0000 C   0  0  0  0  0  0  0  0  0  0  0  0
  -15.0689    2.2778    0.0000 C   0  0  0  0  0  0  0  0  0  0  0  0
  -13.6986    2.8879    0.0000 C   0  0  0  0  0  0  0  0  0  0  0  0
  -10.9579    4.1081    0.0000 C   0  0  0  0  0  0  0  0  0  0  0  0
  -11.1147    2.6163    0.0000 O   0  0  0  0  0  0  0  0  0  0  0  0
   -9.5876    4.7182    0.0000 N   0  0  0  0  0  0  0  0  0  0  0  0
   -0.7500    1.2990    0.0000 N   0  0  0  0  0  0  0  0  0  0  0  0
    0.7500    1.2990    0.0000 C   0  0  0  0  0  0  0  0  0  0  0  0
  1  2  1  0
  2  3  2  0
  3  4  1  0
  4  5  2  0
  5  6  1  0
  6  7  2  0
  7  8  1  0
  8  9  2  0
  9 10  1  0
 10 11  1  0
 11 12  2  0
 12 13  1  0
 13 14  2  0
 14 15  1  0
 15 16  2  0
 16 17  1  0
 17 18  2  0
 18 19  1  0
 19 20  1  0
 20 21  2  0
 21 22  1  0
 22 23  2  0
 23 24  1  0
 24 25  2  0
 14 26  1  0
 26 27  2  0
 27 28  1  0
 28 29  2  0
 29 30  1  0
 30 31  2  0
 31 32  1  0
 32 33  1  0
 33 34  2  0
 34 35  1  0
 35 36  2  0
 36 37  1  0
 37 38  2  0
 38 39  1  0
 39 40  2  0
 40 41  1  0
 41 42  1  0
 42 43  2  0
 43 44  1  0
 44 45  2  0
 45 46  1  0
 46 47  2  0
 36 48  1  0
 48 49  2  0
 49 50  1  0
 50 51  2  0
 51 52  1  0
 52 53  2  0
 53 54  1  0
 54 55  2  0
 55 56  1  0
 56 57  2  0
 57 58  1  0
 58 59  2  0
 53 60  1  0
 60 61  2  0
 60 62  1  0
  5 63  1  0
 63 64  1  0
 64  2  1  0
 10  6  1  0
 27 11  1  0
 32 28  1  0
 49 33  1  0
 62 50  1  0
 19 15  1  0
 25 20  1  0
 41 37  1  0
 47 42  1  0
 59 54  1  0
M  END
>  <Title>  (78) 
idAACZgen7

$$$$

     RDKit          2D

 43 48  0  0  0  0  0  0  0  0999 V2000
   -8.2500   -6.4952    0.0000 C   0  0  0  0  0  0  0  0  0  0  0  0
   -7.5000   -5.1962    0.0000 C   0  0  0  0  0  0  0  0  0  0  0  0
   -8.2500   -3.8971    0.0000 O   0  0  0  0  0  0  0  0  0  0  0  0
   -6.0000   -5.1962    0.0000 O   0  0  0  0  0  0  0  0  0  0  0  0
   -5.2500   -3.8971    0.0000 C   0  0  0  0  0  0  0  0  0  0  0  0
   -6.0000   -2.5981    0.0000 C   0  0  0  0  0  0  0  0  0  0  0  0
   -5.2500   -1.2990    0.0000 C   0  0  0  0  0  0  0  0  0  0  0  0
   -3.7500   -1.2990    0.0000 C   0  0  0  0  0  0  0  0  0  0  0  0
   -3.0000    0.0000    0.0000 C   0  0  0  0  0  0  0  0  0  0  0  0
   -3.7500    1.2990    0.0000 C   0  0  0  0  0  0  0  0  0  0  0  0
   -5.2418    1.4558    0.0000 N   0  0  0  0  0  0  0  0  0  0  0  0
   -5.5537    2.9231    0.0000 N   0  0  0  0  0  0  0  0  0  0  0  0
   -4.2546    3.6731    0.0000 N   0  0  0  0  0  0  0  0  0  0  0  0
   -3.1399    2.6694    0.0000 N   0  0  0  0  0  0  0  0  0  0  0  0
   -1.6727    2.9812    0.0000 C   0  0  0  0  0  0  0  0  0  0  0  0
   -0.6690    1.8665    0.0000 C   0  0  0  0  0  0  0  0  0  0  0  0
    0.7982    2.1784    0.0000 C   0  0  0  0  0  0  0  0  0  0  0  0
    1.2618    3.6050    0.0000 C   0  0  0  0  0  0  0  0  0  0  0  0
    2.7290    3.9168    0.0000 C   0  0  0  0  0  0  0  0  0  0  0  0
    3.7327    2.8021    0.0000 O   0  0  0  0  0  0  0  0  0  0  0  0
    3.1925    5.3434    0.0000 N   0  0  0  0  0  0  0  0  0  0  0  0
    4.6597    5.6553    0.0000 C   0  0  0  0  0  0  0  0  0  0  0  0
    5.7745    4.6516    0.0000 N   0  0  0  0  0  0  0  0  0  0  0  0
    7.0735    5.4016    0.0000 N   0  0  0  0  0  0  0  0  0  0  0  0
    6.7616    6.8688    0.0000 N   0  0  0  0  0  0  0  0  0  0  0  0
    5.2698    7.0256    0.0000 N   0  0  0  0  0  0  0  0  0  0  0  0
    4.5198    8.3246    0.0000 C   0  0  0  0  0  0  0  0  0  0  0  0
    3.0198    8.3246    0.0000 C   0  0  0  0  0  0  0  0  0  0  0  0
    2.2698    9.6237    0.0000 C   0  0  0  0  0  0  0  0  0  0  0  0
    3.0198   10.9227    0.0000 C   0  0  0  0  0  0  0  0  0  0  0  0
    2.2698   12.2217    0.0000 C   0  0  0  0  0  0  0  0  0  0  0  0
    0.7698   12.2217    0.0000 C   0  0  0  0  0  0  0  0  0  0  0  0
    0.0198   13.5208    0.0000 C   0  0  0  0  0  0  0  0  0  0  0  0
    0.7698   14.8198    0.0000 C   0  0  0  0  0  0  0  0  0  0  0  0
    2.2698   14.8198    0.0000 C   0  0  0  0  0  0  0  0  0  0  0  0
    3.0198   13.5208    0.0000 C   0  0  0  0  0  0  0  0  0  0  0  0
    4.5198   10.9227    0.0000 C   0  0  0  0  0  0  0  0  0  0  0  0
    5.2698    9.6237    0.0000 C   0  0  0  0  0  0  0  0  0  0  0  0
    0.2581    4.7197    0.0000 C   0  0  0  0  0  0  0  0  0  0  0  0
   -1.2091    4.4078    0.0000 C   0  0  0  0  0  0  0  0  0  0  0  0
   -3.0000   -2.5981    0.0000 C   0  0  0  0  0  0  0  0  0  0  0  0
   -1.5000   -2.5981    0.0000 O   0  0  0  0  0  0  0  0  0  0  0  0
   -3.7500   -3.8971    0.0000 N   0  0  0  0  0  0  0  0  0  0  0  0
  1  2  1  0
  2  3  2  0
  2  4  1  0
  4  5  1  0
  5  6  2  0
  6  7  1  0
  7  8  2  0
  8  9  1  0
  9 10  1  0
 10 11  2  0
 11 12  1  0
 12 13  2  0
 13 14  1  0
 14 15  1  0
 15 16  2  0
 16 17  1  0
 17 18  2  0
 18 19  1  0
 19 20  2  0
 19 21  1  0
 21 22  1  0
 22 23  2  0
 23 24  1  0
 24 25  2  0
 25 26  1  0
 26 27  1  0
 27 28  2  0
 28 29  1  0
 29 30  2  0
 30 31  1  0
 31 32  2  0
 32 33  1  0
 33 34  2  0
 34 35  1  0
 35 36  2  0
 30 37  1  0
 37 38  2  0
 18 39  1  0
 39 40  2  0
  8 41  1  0
 41 42  2  0
 41 43  1  0
 43  5  1  0
 14 10  1  0
 40 15  1  0
 26 22  1  0
 38 27  1  0
 36 31  1  0
M  END
>  <Title>  (79) 
idAADAgen7

$$$$

     RDKit          2D

 35 39  0  0  0  0  0  0  0  0999 V2000
    3.0000    0.0000    0.0000 C   0  0  0  0  0  0  0  0  0  0  0  0
    1.5000    0.0000    0.0000 C   0  0  0  0  0  0  0  0  0  0  0  0
    0.7500    1.2990    0.0000 C   0  0  0  0  0  0  0  0  0  0  0  0
   -0.7500    1.2990    0.0000 C   0  0  0  0  0  0  0  0  0  0  0  0
   -1.5000    0.0000    0.0000 C   0  0  0  0  0  0  0  0  0  0  0  0
   -3.0000    0.0000    0.0000 C   0  0  0  0  0  0  0  0  0  0  0  0
   -3.8817   -1.2135    0.0000 N   0  0  0  0  0  0  0  0  0  0  0  0
   -5.3083   -0.7500    0.0000 N   0  0  0  0  0  0  0  0  0  0  0  0
   -5.3083    0.7500    0.0000 N   0  0  0  0  0  0  0  0  0  0  0  0
   -3.8817    1.2135    0.0000 N   0  0  0  0  0  0  0  0  0  0  0  0
   -3.4182    2.6401    0.0000 C   0  0  0  0  0  0  0  0  0  0  0  0
   -1.9509    2.9520    0.0000 C   0  0  0  0  0  0  0  0  0  0  0  0
   -1.4874    4.3786    0.0000 C   0  0  0  0  0  0  0  0  0  0  0  0
   -2.4911    5.4933    0.0000 C   0  0  0  0  0  0  0  0  0  0  0  0
   -2.0276    6.9199    0.0000 C   0  0  0  0  0  0  0  0  0  0  0  0
   -0.5604    7.2317    0.0000 C   0  0  0  0  0  0  0  0  0  0  0  0
   -0.0968    8.6583    0.0000 C   0  0  0  0  0  0  0  0  0  0  0  0
   -1.1005    9.7730    0.0000 C   0  0  0  0  0  0  0  0  0  0  0  0
   -2.5677    9.4612    0.0000 C   0  0  0  0  0  0  0  0  0  0  0  0
   -3.0313    8.0346    0.0000 C   0  0  0  0  0  0  0  0  0  0  0  0
   -3.9583    5.1814    0.0000 C   0  0  0  0  0  0  0  0  0  0  0  0
   -4.4218    3.7548    0.0000 C   0  0  0  0  0  0  0  0  0  0  0  0
   -5.8891    3.4430    0.0000 C   0  0  0  0  0  0  0  0  0  0  0  0
   -6.8928    4.5577    0.0000 C   0  0  0  0  0  0  0  0  0  0  0  0
   -8.3600    4.2458    0.0000 C   0  0  0  0  0  0  0  0  0  0  0  0
   -8.8235    2.8192    0.0000 C   0  0  0  0  0  0  0  0  0  0  0  0
  -10.2907    2.5074    0.0000 C   0  0  0  0  0  0  0  0  0  0  0  0
  -10.7543    1.0808    0.0000 O   0  0  0  0  0  0  0  0  0  0  0  0
  -11.2944    3.6221    0.0000 N   0  0  0  0  0  0  0  0  0  0  0  0
  -12.7617    3.3102    0.0000 O   0  0  0  0  0  0  0  0  0  0  0  0
   -7.8198    1.7045    0.0000 C   0  0  0  0  0  0  0  0  0  0  0  0
   -6.3526    2.0164    0.0000 C   0  0  0  0  0  0  0  0  0  0  0  0
   -0.7500   -1.2990    0.0000 C   0  0  0  0  0  0  0  0  0  0  0  0
   -1.5000   -2.5981    0.0000 O   0  0  0  0  0  0  0  0  0  0  0  0
    0.7500   -1.2990    0.0000 N   0  0  0  0  0  0  0  0  0  0  0  0
  1  2  1  0
  2  3  2  0
  3  4  1  0
  4  5  2  0
  5  6  1  0
  6  7  2  0
  7  8  1  0
  8  9  2  0
  9 10  1  0
 10 11  1  0
 11 12  2  0
 12 13  1  0
 13 14  2  0
 14 15  1  0
 15 16  2  0
 16 17  1  0
 17 18  2  0
 18 19  1  0
 19 20  2  0
 14 21  1  0
 21 22  2  0
 22 23  1  0
 23 24  2  0
 24 25  1  0
 25 26  2  0
 26 27  1  0
 27 28  2  0
 27 29  1  0
 29 30  1  0
 26 31  1  0
 31 32  1  0
  5 33  1  0
 33 34  2  0
 33 35  1  0
 35  2  1  0
 10  6  1  0
 22 11  1  0
 32 23  1  0
 20 15  1  0
M  END
>  <Title>  (80) 
idAADBgen7

$$$$

     RDKit          2D

 24 25  0  0  0  0  0  0  0  0999 V2000
    8.8018    3.9220    0.0000 C   0  0  0  0  0  0  0  0  0  0  0  0
    7.4803    4.6316    0.0000 O   0  0  0  0  0  0  0  0  0  0  0  0
    6.2050    3.8420    0.0000 C   0  0  0  0  0  0  0  0  0  0  0  0
    6.3631    2.3503    0.0000 C   0  0  0  0  0  0  0  0  0  0  0  0
    5.2954    1.2967    0.0000 C   0  0  0  0  0  0  0  0  0  0  0  0
    3.8060    1.4745    0.0000 C   0  0  0  0  0  0  0  0  0  0  0  0
    4.0816    0.0000    0.0000 C   0  0  0  0  0  0  0  0  0  0  0  0
    3.8060   -1.4745    0.0000 C   0  0  0  0  0  0  0  0  0  0  0  0
    3.0164   -2.7498    0.0000 C   0  0  0  0  0  0  0  0  0  0  0  0
    1.8193   -3.6537    0.0000 C   0  0  0  0  0  0  0  0  0  0  0  0
    0.3766   -4.0642    0.0000 C   0  0  0  0  0  0  0  0  0  0  0  0
   -1.1170   -3.9258    0.0000 C   0  0  0  0  0  0  0  0  0  0  0  0
   -2.4597   -3.2572    0.0000 C   0  0  0  0  0  0  0  0  0  0  0  0
   -3.4703   -2.1487    0.0000 C   0  0  0  0  0  0  0  0  0  0  0  0
   -4.0121   -0.7500    0.0000 C   0  0  0  0  0  0  0  0  0  0  0  0
   -4.0121    0.7500    0.0000 C   0  0  0  0  0  0  0  0  0  0  0  0
   -3.4703    2.1487    0.0000 C   0  0  0  0  0  0  0  0  0  0  0  0
   -2.4597    3.2572    0.0000 C   0  0  0  0  0  0  0  0  0  0  0  0
   -1.1170    3.9258    0.0000 C   0  0  0  0  0  0  0  0  0  0  0  0
    0.3766    4.0642    0.0000 C   0  0  0  0  0  0  0  0  0  0  0  0
    1.8193    3.6537    0.0000 C   0  0  0  0  0  0  0  0  0  0  0  0
    3.0164    2.7498    0.0000 C   0  0  0  0  0  0  0  0  0  0  0  0
    3.5211    4.1623    0.0000 C   0  0  0  0  0  0  0  0  0  0  0  0
    4.9402    4.6484    0.0000 C   0  0  0  0  0  0  0  0  0  0  0  0
  1  2  1  0
  2  3  1  0
  3  4  2  0
  4  5  1  0
  5  6  2  0
  6  7  1  0
  7  8  2  0
  8  9  1  0
  9 10  2  0
 10 11  1  0
 11 12  2  0
 12 13  1  0
 13 14  2  0
 14 15  1  0
 15 16  2  0
 16 17  1  0
 17 18  2  0
 18 19  1  0
 19 20  2  0
 20 21  1  0
 21 22  2  0
 22 23  1  0
 23 24  1  0
 24  3  1  0
 22  6  1  0
M  END
>  <Title>  (81) 
idAADCgen7

$$$$

     RDKit          2D

 22 24  0  0  0  0  0  0  0  0999 V2000
    3.0000    0.0000    0.0000 C   0  0  0  0  0  0  0  0  0  0  0  0
    1.5000    0.0000    0.0000 C   0  0  0  0  0  0  0  0  0  0  0  0
    0.7500   -1.2990    0.0000 C   0  0  0  0  0  0  0  0  0  0  0  0
   -0.7500   -1.2990    0.0000 C   0  0  0  0  0  0  0  0  0  0  0  0
   -1.5000    0.0000    0.0000 C   0  0  0  0  0  0  0  0  0  0  0  0
   -3.0000    0.0000    0.0000 C   0  0  0  0  0  0  0  0  0  0  0  0
   -3.8817   -1.2135    0.0000 N   0  0  0  0  0  0  0  0  0  0  0  0
   -5.3083   -0.7500    0.0000 N   0  0  0  0  0  0  0  0  0  0  0  0
   -5.3083    0.7500    0.0000 N   0  0  0  0  0  0  0  0  0  0  0  0
   -3.8817    1.2135    0.0000 N   0  0  0  0  0  0  0  0  0  0  0  0
   -3.4182    2.6401    0.0000 C   0  0  0  0  0  0  0  0  0  0  0  0
   -1.9509    2.9520    0.0000 C   0  0  0  0  0  0  0  0  0  0  0  0
   -1.4874    4.3786    0.0000 C   0  0  0  0  0  0  0  0  0  0  0  0
   -2.4911    5.4933    0.0000 C   0  0  0  0  0  0  0  0  0  0  0  0
   -2.0276    6.9199    0.0000 C   0  0  0  0  0  0  0  0  0  0  0  0
   -3.0313    8.0346    0.0000 O   0  0  0  0  0  0  0  0  0  0  0  0
   -0.5604    7.2317    0.0000 N   0  0  0  0  0  0  0  0  0  0  0  0
   -0.0968    8.6583    0.0000 O   0  0  0  0  0  0  0  0  0  0  0  0
   -3.9583    5.1814    0.0000 C   0  0  0  0  0  0  0  0  0  0  0  0
   -4.4218    3.7548    0.0000 C   0  0  0  0  0  0  0  0  0  0  0  0
   -0.7500    1.2990    0.0000 C   0  0  0  0  0  0  0  0  0  0  0  0
    0.7500    1.2990    0.0000 N   0  0  0  0  0  0  0  0  0  0  0  0
  1  2  1  0
  2  3  2  0
  3  4  1  0
  4  5  2  0
  5  6  1  0
  6  7  2  0
  7  8  1  0
  8  9  2  0
  9 10  1  0
 10 11  1  0
 11 12  2  0
 12 13  1  0
 13 14  2  0
 14 15  1  0
 15 16  2  0
 15 17  1  0
 17 18  1  0
 14 19  1  0
 19 20  1  0
  5 21  1  0
 21 22  1  0
 22  2  1  0
 10  6  1  0
 20 11  1  0
M  END
>  <Title>  (82) 
idAADDgen7

$$$$

     RDKit          2D

 28 32  0  0  0  0  0  0  0  0999 V2000
   -1.2266    3.6245    0.0000 C   0  0  0  0  0  0  0  0  0  0  0  0
    0.1437    3.0144    0.0000 C   0  0  0  0  0  0  0  0  0  0  0  0
    0.4556    1.5472    0.0000 C   0  0  0  0  0  0  0  0  0  0  0  0
    1.9474    1.3904    0.0000 C   0  0  0  0  0  0  0  0  0  0  0  0
    2.5575    2.7607    0.0000 C   0  0  0  0  0  0  0  0  0  0  0  0
    4.0247    3.0725    0.0000 C   0  0  0  0  0  0  0  0  0  0  0  0
    4.6348    4.4429    0.0000 N   0  0  0  0  0  0  0  0  0  0  0  0
    6.1266    4.2861    0.0000 N   0  0  0  0  0  0  0  0  0  0  0  0
    6.4385    2.8189    0.0000 N   0  0  0  0  0  0  0  0  0  0  0  0
    5.1394    2.0689    0.0000 N   0  0  0  0  0  0  0  0  0  0  0  0
    4.9826    0.5771    0.0000 C   0  0  0  0  0  0  0  0  0  0  0  0
    6.0974   -0.4266    0.0000 C   0  0  0  0  0  0  0  0  0  0  0  0
    5.4873   -1.7969    0.0000 C   0  0  0  0  0  0  0  0  0  0  0  0
    3.9955   -1.6402    0.0000 C   0  0  0  0  0  0  0  0  0  0  0  0
    2.9918   -2.7549    0.0000 C   0  0  0  0  0  0  0  0  0  0  0  0
    1.5000   -2.5981    0.0000 N   0  0  0  0  0  0  0  0  0  0  0  0
    0.8899   -3.9684    0.0000 N   0  0  0  0  0  0  0  0  0  0  0  0
    2.0046   -4.9721    0.0000 N   0  0  0  0  0  0  0  0  0  0  0  0
    3.3037   -4.2221    0.0000 N   0  0  0  0  0  0  0  0  0  0  0  0
    4.6740   -4.8322    0.0000 C   0  0  0  0  0  0  0  0  0  0  0  0
    4.8308   -6.3240    0.0000 C   0  0  0  0  0  0  0  0  0  0  0  0
    6.2011   -6.9341    0.0000 C   0  0  0  0  0  0  0  0  0  0  0  0
    7.4146   -6.0524    0.0000 C   0  0  0  0  0  0  0  0  0  0  0  0
    7.2578   -4.5606    0.0000 C   0  0  0  0  0  0  0  0  0  0  0  0
    5.8875   -3.9505    0.0000 C   0  0  0  0  0  0  0  0  0  0  0  0
    3.6836   -0.1729    0.0000 C   0  0  0  0  0  0  0  0  0  0  0  0
    2.3133    0.4372    0.0000 O   0  0  0  0  0  0  0  0  0  0  0  0
    1.4428    3.7644    0.0000 C   0  0  0  0  0  0  0  0  0  0  0  0
  1  2  1  0
  2  3  2  0
  3  4  1  0
  4  5  2  0
  5  6  1  0
  6  7  2  0
  7  8  1  0
  8  9  2  0
  9 10  1  0
 10 11  1  0
 11 12  2  0
 12 13  1  0
 13 14  2  0
 14 15  1  0
 15 16  2  0
 16 17  1  0
 17 18  2  0
 18 19  1  0
 19 20  1  0
 20 21  2  0
 21 22  1  0
 22 23  2  0
 23 24  1  0
 24 25  2  0
 14 26  1  0
 26 27  2  0
  5 28  1  0
 28  2  1  0
 10  6  1  0
 26 11  1  0
 19 15  1  0
 25 20  1  0
M  END
>  <Title>  (83) 
idAADEgen7

$$$$

     RDKit          2D

 36 41  0  0  0  0  0  0  0  0999 V2000
    3.0000    0.0000    0.0000 C   0  0  0  0  0  0  0  0  0  0  0  0
    1.5000    0.0000    0.0000 C   0  0  0  0  0  0  0  0  0  0  0  0
    0.7500    1.2990    0.0000 C   0  0  0  0  0  0  0  0  0  0  0  0
   -0.7500    1.2990    0.0000 C   0  0  0  0  0  0  0  0  0  0  0  0
   -1.5000    0.0000    0.0000 C   0  0  0  0  0  0  0  0  0  0  0  0
   -3.0000    0.0000    0.0000 C   0  0  0  0  0  0  0  0  0  0  0  0
   -3.8817   -1.2135    0.0000 N   0  0  0  0  0  0  0  0  0  0  0  0
   -5.3083   -0.7500    0.0000 N   0  0  0  0  0  0  0  0  0  0  0  0
   -5.3083    0.7500    0.0000 N   0  0  0  0  0  0  0  0  0  0  0  0
   -3.8817    1.2135    0.0000 N   0  0  0  0  0  0  0  0  0  0  0  0
   -3.4182    2.6401    0.0000 C   0  0  0  0  0  0  0  0  0  0  0  0
   -1.9509    2.9520    0.0000 C   0  0  0  0  0  0  0  0  0  0  0  0
   -1.4874    4.3786    0.0000 C   0  0  0  0  0  0  0  0  0  0  0  0
   -2.4911    5.4933    0.0000 C   0  0  0  0  0  0  0  0  0  0  0  0
   -2.0276    6.9199    0.0000 C   0  0  0  0  0  0  0  0  0  0  0  0
   -2.9093    8.1334    0.0000 N   0  0  0  0  0  0  0  0  0  0  0  0
   -2.0276    9.3469    0.0000 N   0  0  0  0  0  0  0  0  0  0  0  0
   -0.6010    8.8834    0.0000 N   0  0  0  0  0  0  0  0  0  0  0  0
   -0.6010    7.3834    0.0000 N   0  0  0  0  0  0  0  0  0  0  0  0
    0.6125    6.5017    0.0000 C   0  0  0  0  0  0  0  0  0  0  0  0
    0.4557    5.0099    0.0000 C   0  0  0  0  0  0  0  0  0  0  0  0
    1.6693    4.1283    0.0000 C   0  0  0  0  0  0  0  0  0  0  0  0
    3.0396    4.7384    0.0000 C   0  0  0  0  0  0  0  0  0  0  0  0
    4.2531    3.8567    0.0000 C   0  0  0  0  0  0  0  0  0  0  0  0
    4.0963    2.3649    0.0000 C   0  0  0  0  0  0  0  0  0  0  0  0
    5.3098    1.4832    0.0000 C   0  0  0  0  0  0  0  0  0  0  0  0
    6.6802    2.0933    0.0000 C   0  0  0  0  0  0  0  0  0  0  0  0
    6.8370    3.5851    0.0000 C   0  0  0  0  0  0  0  0  0  0  0  0
    5.6234    4.4668    0.0000 C   0  0  0  0  0  0  0  0  0  0  0  0
    3.1964    6.2301    0.0000 C   0  0  0  0  0  0  0  0  0  0  0  0
    1.9829    7.1118    0.0000 C   0  0  0  0  0  0  0  0  0  0  0  0
   -3.9583    5.1814    0.0000 C   0  0  0  0  0  0  0  0  0  0  0  0
   -4.4218    3.7548    0.0000 N   0  0  0  0  0  0  0  0  0  0  0  0
   -0.7500   -1.2990    0.0000 C   0  0  0  0  0  0  0  0  0  0  0  0
   -1.5000   -2.5981    0.0000 O   0  0  0  0  0  0  0  0  0  0  0  0
    0.7500   -1.2990    0.0000 N   0  0  0  0  0  0  0  0  0  0  0  0
  1  2  1  0
  2  3  2  0
  3  4  1  0
  4  5  2  0
  5  6  1  0
  6  7  2  0
  7  8  1  0
  8  9  2  0
  9 10  1  0
 10 11  1  0
 11 12  2  0
 12 13  1  0
 13 14  2  0
 14 15  1  0
 15 16  2  0
 16 17  1  0
 17 18  2  0
 18 19  1  0
 19 20  1  0
 20 21  2  0
 21 22  1  0
 22 23  2  0
 23 24  1  0
 24 25  2  0
 25 26  1  0
 26 27  2  0
 27 28  1  0
 28 29  2  0
 23 30  1  0
 30 31  2  0
 14 32  1  0
 32 33  1  0
  5 34  1  0
 34 35  2  0
 34 36  1  0
 36  2  1  0
 10  6  1  0
 33 11  1  0
 19 15  1  0
 31 20  1  0
 29 24  1  0
M  END
>  <Title>  (84) 
idAADFgen7

$$$$

     RDKit          2D

 13 14  0  0  0  0  0  0  0  0999 V2000
    1.3240   -6.3062    0.0000 C   0  0  0  0  0  0  0  0  0  0  0  0
    0.7500   -4.9204    0.0000 C   0  0  0  0  0  0  0  0  0  0  0  0
    1.8107   -3.8597    0.0000 C   0  0  0  0  0  0  0  0  0  0  0  0
    1.8107   -2.3597    0.0000 C   0  0  0  0  0  0  0  0  0  0  0  0
    0.7500   -1.2990    0.0000 C   0  0  0  0  0  0  0  0  0  0  0  0
    1.5000    0.0000    0.0000 C   0  0  0  0  0  0  0  0  0  0  0  0
    0.7500    1.2990    0.0000 C   0  0  0  0  0  0  0  0  0  0  0  0
   -0.7500    1.2990    0.0000 C   0  0  0  0  0  0  0  0  0  0  0  0
   -1.5000    0.0000    0.0000 C   0  0  0  0  0  0  0  0  0  0  0  0
   -0.7500   -1.2990    0.0000 C   0  0  0  0  0  0  0  0  0  0  0  0
   -1.8107   -2.3597    0.0000 C   0  0  0  0  0  0  0  0  0  0  0  0
   -1.8107   -3.8597    0.0000 C   0  0  0  0  0  0  0  0  0  0  0  0
   -0.7500   -4.9204    0.0000 C   0  0  0  0  0  0  0  0  0  0  0  0
  1  2  1  0
  2  3  2  0
  3  4  1  0
  4  5  2  0
  5  6  1  0
  6  7  2  0
  7  8  1  0
  8  9  2  0
  9 10  1  0
 10 11  2  0
 11 12  1  0
 12 13  2  0
 13  2  1  0
 10  5  1  0
M  END
>  <Title>  (85) 
idAADGgen7

$$$$

     RDKit          2D

 54 62  0  0  0  0  0  0  0  0999 V2000
   -2.1129  -11.1403    0.0000 C   0  0  0  0  0  0  0  0  0  0  0  0
   -3.5684  -10.7774    0.0000 C   0  0  0  0  0  0  0  0  0  0  0  0
   -4.6103  -11.8564    0.0000 C   0  0  0  0  0  0  0  0  0  0  0  0
   -6.0658  -11.4935    0.0000 C   0  0  0  0  0  0  0  0  0  0  0  0
   -6.4792  -10.0516    0.0000 C   0  0  0  0  0  0  0  0  0  0  0  0
   -7.9347   -9.6888    0.0000 C   0  0  0  0  0  0  0  0  0  0  0  0
   -9.0838  -10.6529    0.0000 N   0  0  0  0  0  0  0  0  0  0  0  0
  -10.3558   -9.8581    0.0000 N   0  0  0  0  0  0  0  0  0  0  0  0
   -9.9929   -8.4026    0.0000 N   0  0  0  0  0  0  0  0  0  0  0  0
   -8.4966   -8.2980    0.0000 N   0  0  0  0  0  0  0  0  0  0  0  0
   -7.7017   -7.0259    0.0000 C   0  0  0  0  0  0  0  0  0  0  0  0
   -6.2026   -7.0783    0.0000 C   0  0  0  0  0  0  0  0  0  0  0  0
   -5.4077   -5.8062    0.0000 C   0  0  0  0  0  0  0  0  0  0  0  0
   -6.1120   -4.4818    0.0000 C   0  0  0  0  0  0  0  0  0  0  0  0
   -5.3171   -3.2097    0.0000 C   0  0  0  0  0  0  0  0  0  0  0  0
   -3.8499   -3.5216    0.0000 C   0  0  0  0  0  0  0  0  0  0  0  0
   -2.5254   -2.8174    0.0000 C   0  0  0  0  0  0  0  0  0  0  0  0
   -1.9635   -1.4266    0.0000 C   0  0  0  0  0  0  0  0  0  0  0  0
   -0.7500   -2.3083    0.0000 C   0  0  0  0  0  0  0  0  0  0  0  0
    0.7500   -2.3083    0.0000 C   0  0  0  0  0  0  0  0  0  0  0  0
    1.2135   -3.7348    0.0000 C   0  0  0  0  0  0  0  0  0  0  0  0
    0.3318   -4.9484    0.0000 N   0  0  0  0  0  0  0  0  0  0  0  0
    1.2135   -6.1619    0.0000 N   0  0  0  0  0  0  0  0  0  0  0  0
    2.6401   -5.6984    0.0000 N   0  0  0  0  0  0  0  0  0  0  0  0
    2.6401   -4.1984    0.0000 N   0  0  0  0  0  0  0  0  0  0  0  0
    3.8536   -3.3167    0.0000 C   0  0  0  0  0  0  0  0  0  0  0  0
    5.2240   -3.9268    0.0000 C   0  0  0  0  0  0  0  0  0  0  0  0
    6.4375   -3.0451    0.0000 C   0  0  0  0  0  0  0  0  0  0  0  0
    6.2807   -1.5533    0.0000 C   0  0  0  0  0  0  0  0  0  0  0  0
    4.9104   -0.9432    0.0000 C   0  0  0  0  0  0  0  0  0  0  0  0
    3.6968   -1.8249    0.0000 C   0  0  0  0  0  0  0  0  0  0  0  0
    1.9635   -1.4266    0.0000 C   0  0  0  0  0  0  0  0  0  0  0  0
    2.4271    0.0000    0.0000 C   0  0  0  0  0  0  0  0  0  0  0  0
    1.9635    1.4266    0.0000 C   0  0  0  0  0  0  0  0  0  0  0  0
    0.7500    2.3083    0.0000 C   0  0  0  0  0  0  0  0  0  0  0  0
   -0.7500    2.3083    0.0000 C   0  0  0  0  0  0  0  0  0  0  0  0
   -1.9635    1.4266    0.0000 C   0  0  0  0  0  0  0  0  0  0  0  0
   -2.4271    0.0000    0.0000 C   0  0  0  0  0  0  0  0  0  0  0  0
   -3.6991    0.7949    0.0000 N   0  0  0  0  0  0  0  0  0  0  0  0
   -5.1845    0.5861    0.0000 N   0  0  0  0  0  0  0  0  0  0  0  0
   -6.1882   -0.5286    0.0000 N   0  0  0  0  0  0  0  0  0  0  0  0
   -6.2406   -2.0277    0.0000 N   0  0  0  0  0  0  0  0  0  0  0  0
   -7.6110   -4.4294    0.0000 C   0  0  0  0  0  0  0  0  0  0  0  0
   -8.4059   -5.7015    0.0000 C   0  0  0  0  0  0  0  0  0  0  0  0
   -9.9050   -5.6491    0.0000 C   0  0  0  0  0  0  0  0  0  0  0  0
  -10.6092   -4.3247    0.0000 C   0  0  0  0  0  0  0  0  0  0  0  0
  -12.1083   -4.2724    0.0000 C   0  0  0  0  0  0  0  0  0  0  0  0
  -12.9032   -5.5444    0.0000 C   0  0  0  0  0  0  0  0  0  0  0  0
  -14.4023   -5.4921    0.0000 C   0  0  0  0  0  0  0  0  0  0  0  0
  -12.1990   -6.8689    0.0000 C   0  0  0  0  0  0  0  0  0  0  0  0
  -12.9939   -8.1409    0.0000 O   0  0  0  0  0  0  0  0  0  0  0  0
  -10.6999   -6.9212    0.0000 N   0  0  0  0  0  0  0  0  0  0  0  0
   -5.4373   -8.9726    0.0000 C   0  0  0  0  0  0  0  0  0  0  0  0
   -3.9818   -9.3355    0.0000 C   0  0  0  0  0  0  0  0  0  0  0  0
  1  2  1  0
  2  3  2  0
  3  4  1  0
  4  5  2  0
  5  6  1  0
  6  7  2  0
  7  8  1  0
  8  9  2  0
  9 10  1  0
 10 11  1  0
 11 12  2  0
 12 13  1  0
 13 14  2  0
 14 15  1  0
 15 16  2  0
 16 17  1  0
 17 18  2  0
 18 19  1  0
 19 20  2  0
 20 21  1  0
 21 22  2  0
 22 23  1  0
 23 24  2  0
 24 25  1  0
 25 26  1  0
 26 27  2  0
 27 28  1  0
 28 29  2  0
 29 30  1  0
 30 31  2  0
 20 32  1  0
 32 33  2  0
 33 34  1  0
 34 35  2  0
 35 36  1  0
 36 37  2  0
 37 38  1  0
 38 39  2  0
 39 40  1  0
 40 41  2  0
 41 42  1  0
 14 43  1  0
 43 44  2  0
 44 45  1  0
 45 46  2  0
 46 47  1  0
 47 48  2  0
 48 49  1  0
 48 50  1  0
 50 51  2  0
 50 52  1  0
  5 53  1  0
 53 54  2  0
 54  2  1  0
 10  6  1  0
 44 11  1  0
 52 45  1  0
 42 15  1  0
 38 18  1  0
 25 21  1  0
 31 26  1  0
 42 32  1  0
M  END
>  <Title>  (86) 
idAADHgen7

$$$$

     RDKit          2D

 33 37  0  0  0  0  0  0  0  0999 V2000
    3.0000    0.0000    0.0000 C   0  0  0  0  0  0  0  0  0  0  0  0
    1.5000    0.0000    0.0000 C   0  0  0  0  0  0  0  0  0  0  0  0
    0.7500   -1.2990    0.0000 C   0  0  0  0  0  0  0  0  0  0  0  0
   -0.7500   -1.2990    0.0000 C   0  0  0  0  0  0  0  0  0  0  0  0
   -1.5000    0.0000    0.0000 C   0  0  0  0  0  0  0  0  0  0  0  0
   -3.0000    0.0000    0.0000 N   0  0  0  0  0  0  0  0  0  0  0  0
   -3.7500    1.2990    0.0000 C   0  0  0  0  0  0  0  0  0  0  0  0
   -3.0000    2.5981    0.0000 O   0  0  0  0  0  0  0  0  0  0  0  0
   -5.2500    1.2990    0.0000 C   0  0  0  0  0  0  0  0  0  0  0  0
   -6.1317    0.0855    0.0000 C   0  0  0  0  0  0  0  0  0  0  0  0
   -7.5583    0.5490    0.0000 C   0  0  0  0  0  0  0  0  0  0  0  0
   -7.5583    2.0490    0.0000 C   0  0  0  0  0  0  0  0  0  0  0  0
   -6.1317    2.5126    0.0000 C   0  0  0  0  0  0  0  0  0  0  0  0
   -5.6682    3.9391    0.0000 C   0  0  0  0  0  0  0  0  0  0  0  0
   -4.2009    4.2510    0.0000 C   0  0  0  0  0  0  0  0  0  0  0  0
   -3.7374    5.6776    0.0000 C   0  0  0  0  0  0  0  0  0  0  0  0
   -4.7411    6.7923    0.0000 C   0  0  0  0  0  0  0  0  0  0  0  0
   -4.2776    8.2189    0.0000 C   0  0  0  0  0  0  0  0  0  0  0  0
   -5.1593    9.4324    0.0000 N   0  0  0  0  0  0  0  0  0  0  0  0
   -4.2776   10.6460    0.0000 N   0  0  0  0  0  0  0  0  0  0  0  0
   -2.8510   10.1824    0.0000 N   0  0  0  0  0  0  0  0  0  0  0  0
   -2.8510    8.6824    0.0000 N   0  0  0  0  0  0  0  0  0  0  0  0
   -1.6375    7.8008    0.0000 C   0  0  0  0  0  0  0  0  0  0  0  0
   -1.7943    6.3090    0.0000 C   0  0  0  0  0  0  0  0  0  0  0  0
   -0.5807    5.4273    0.0000 C   0  0  0  0  0  0  0  0  0  0  0  0
    0.7896    6.0374    0.0000 C   0  0  0  0  0  0  0  0  0  0  0  0
    0.9464    7.5292    0.0000 C   0  0  0  0  0  0  0  0  0  0  0  0
   -0.2671    8.4109    0.0000 C   0  0  0  0  0  0  0  0  0  0  0  0
   -6.2083    6.4805    0.0000 C   0  0  0  0  0  0  0  0  0  0  0  0
   -6.6718    5.0539    0.0000 C   0  0  0  0  0  0  0  0  0  0  0  0
   -0.7500    1.2990    0.0000 C   0  0  0  0  0  0  0  0  0  0  0  0
   -1.5000    2.5981    0.0000 O   0  0  0  0  0  0  0  0  0  0  0  0
    0.7500    1.2990    0.0000 N   0  0  0  0  0  0  0  0  0  0  0  0
  1  2  1  0
  2  3  2  0
  3  4  1  0
  4  5  2  0
  5  6  1  0
  6  7  1  0
  7  8  2  0
  7  9  1  0
  9 10  1  0
 10 11  2  0
 11 12  1  0
 12 13  2  0
 13 14  1  0
 14 15  2  0
 15 16  1  0
 16 17  2  0
 17 18  1  0
 18 19  2  0
 19 20  1  0
 20 21  2  0
 21 22  1  0
 22 23  1  0
 23 24  2  0
 24 25  1  0
 25 26  2  0
 26 27  1  0
 27 28  2  0
 17 29  1  0
 29 30  2  0
  5 31  1  0
 31 32  2  0
 31 33  1  0
 33  2  1  0
 13  9  1  0
 30 14  1  0
 22 18  1  0
 28 23  1  0
M  END
>  <Title>  (87) 
idAADIgen7

$$$$

     RDKit          2D

 27 30  0  0  0  0  0  0  0  0999 V2000
   -4.6391   -6.4907    0.0000 C   0  0  0  0  0  0  0  0  0  0  0  0
   -4.9893   -5.0321    0.0000 C   0  0  0  0  0  0  0  0  0  0  0  0
   -6.4275   -4.6061    0.0000 C   0  0  0  0  0  0  0  0  0  0  0  0
   -6.7777   -3.1475    0.0000 C   0  0  0  0  0  0  0  0  0  0  0  0
   -5.6896   -2.1150    0.0000 C   0  0  0  0  0  0  0  0  0  0  0  0
   -6.0398   -0.6564    0.0000 O   0  0  0  0  0  0  0  0  0  0  0  0
   -4.9517    0.3761    0.0000 C   0  0  0  0  0  0  0  0  0  0  0  0
   -5.3019    1.8347    0.0000 C   0  0  0  0  0  0  0  0  0  0  0  0
   -6.6877    2.4087    0.0000 N   0  0  0  0  0  0  0  0  0  0  0  0
   -6.5700    3.9041    0.0000 N   0  0  0  0  0  0  0  0  0  0  0  0
   -5.1114    4.2542    0.0000 N   0  0  0  0  0  0  0  0  0  0  0  0
   -4.3277    2.9753    0.0000 N   0  0  0  0  0  0  0  0  0  0  0  0
   -2.8323    2.8576    0.0000 C   0  0  0  0  0  0  0  0  0  0  0  0
   -2.1513    4.1941    0.0000 C   0  0  0  0  0  0  0  0  0  0  0  0
   -0.7248    4.6576    0.0000 C   0  0  0  0  0  0  0  0  0  0  0  0
    0.6118    3.9766    0.0000 C   0  0  0  0  0  0  0  0  0  0  0  0
    1.0753    2.5500    0.0000 C   0  0  0  0  0  0  0  0  0  0  0  0
    0.3943    1.2135    0.0000 C   0  0  0  0  0  0  0  0  0  0  0  0
    1.2760    0.0000    0.0000 C   0  0  0  0  0  0  0  0  0  0  0  0
    0.3943   -1.2135    0.0000 C   0  0  0  0  0  0  0  0  0  0  0  0
   -1.0323   -0.7500    0.0000 C   0  0  0  0  0  0  0  0  0  0  0  0
   -1.0323    0.7500    0.0000 C   0  0  0  0  0  0  0  0  0  0  0  0
   -2.3688    1.4310    0.0000 C   0  0  0  0  0  0  0  0  0  0  0  0
   -3.5094    0.4568    0.0000 O   0  0  0  0  0  0  0  0  0  0  0  0
   -4.2514   -2.5410    0.0000 N   0  0  0  0  0  0  0  0  0  0  0  0
   -3.9012   -3.9996    0.0000 C   0  0  0  0  0  0  0  0  0  0  0  0
   -2.4630   -4.4256    0.0000 O   0  0  0  0  0  0  0  0  0  0  0  0
  1  2  1  0
  2  3  2  0
  3  4  1  0
  4  5  2  0
  5  6  1  0
  6  7  1  0
  7  8  1  0
  8  9  2  0
  9 10  1  0
 10 11  2  0
 11 12  1  0
 12 13  1  0
 13 14  2  0
 14 15  1  0
 15 16  2  0
 16 17  1  0
 17 18  2  0
 18 19  1  0
 19 20  2  0
 20 21  1  0
 21 22  2  0
 22 23  1  0
 23 24  2  0
  5 25  1  0
 25 26  1  0
 26 27  2  0
 26  2  1  0
 12  8  1  0
 23 13  1  0
 22 18  1  0
M  END
>  <Title>  (88) 
idAADJgen7

$$$$

     RDKit          2D

 11 11  0  0  0  0  0  0  0  0999 V2000
    3.9271    0.0000    0.0000 C   0  0  0  0  0  0  0  0  0  0  0  0
    2.4271    0.0000    0.0000 C   0  0  0  0  0  0  0  0  0  0  0  0
    1.9635   -1.4266    0.0000 C   0  0  0  0  0  0  0  0  0  0  0  0
    0.7500   -2.3083    0.0000 C   0  0  0  0  0  0  0  0  0  0  0  0
   -0.7500   -2.3083    0.0000 C   0  0  0  0  0  0  0  0  0  0  0  0
   -1.9635   -1.4266    0.0000 C   0  0  0  0  0  0  0  0  0  0  0  0
   -2.4271    0.0000    0.0000 C   0  0  0  0  0  0  0  0  0  0  0  0
   -1.9635    1.4266    0.0000 C   0  0  0  0  0  0  0  0  0  0  0  0
   -0.7500    2.3083    0.0000 C   0  0  0  0  0  0  0  0  0  0  0  0
    0.7500    2.3083    0.0000 C   0  0  0  0  0  0  0  0  0  0  0  0
    1.9635    1.4266    0.0000 C   0  0  0  0  0  0  0  0  0  0  0  0
  1  2  1  0
  2  3  1  0
  3  4  1  0
  4  5  1  0
  5  6  1  0
  6  7  1  0
  7  8  1  0
  8  9  1  0
  9 10  1  0
 10 11  1  0
 11  2  1  0
M  END
>  <Title>  (89) 
idAADKgen7

$$$$

     RDKit          2D

 23 25  0  0  0  0  0  0  0  0999 V2000
    3.7500   -1.2990    0.0000 C   0  0  0  0  0  0  0  0  0  0  0  0
    3.0000    0.0000    0.0000 O   0  0  0  0  0  0  0  0  0  0  0  0
    1.5000    0.0000    0.0000 C   0  0  0  0  0  0  0  0  0  0  0  0
    0.7500   -1.2990    0.0000 C   0  0  0  0  0  0  0  0  0  0  0  0
   -0.7500   -1.2990    0.0000 C   0  0  0  0  0  0  0  0  0  0  0  0
   -1.5000    0.0000    0.0000 C   0  0  0  0  0  0  0  0  0  0  0  0
   -3.0000    0.0000    0.0000 C   0  0  0  0  0  0  0  0  0  0  0  0
   -3.8817   -1.2135    0.0000 N   0  0  0  0  0  0  0  0  0  0  0  0
   -5.3083   -0.7500    0.0000 N   0  0  0  0  0  0  0  0  0  0  0  0
   -5.3083    0.7500    0.0000 N   0  0  0  0  0  0  0  0  0  0  0  0
   -3.8817    1.2135    0.0000 N   0  0  0  0  0  0  0  0  0  0  0  0
   -3.4182    2.6401    0.0000 C   0  0  0  0  0  0  0  0  0  0  0  0
   -1.9509    2.9520    0.0000 C   0  0  0  0  0  0  0  0  0  0  0  0
   -1.4874    4.3786    0.0000 C   0  0  0  0  0  0  0  0  0  0  0  0
   -2.4911    5.4933    0.0000 C   0  0  0  0  0  0  0  0  0  0  0  0
   -2.0276    6.9199    0.0000 C   0  0  0  0  0  0  0  0  0  0  0  0
   -3.0313    8.0346    0.0000 O   0  0  0  0  0  0  0  0  0  0  0  0
   -0.5604    7.2317    0.0000 N   0  0  0  0  0  0  0  0  0  0  0  0
   -0.0968    8.6583    0.0000 O   0  0  0  0  0  0  0  0  0  0  0  0
   -3.9583    5.1814    0.0000 C   0  0  0  0  0  0  0  0  0  0  0  0
   -4.4218    3.7548    0.0000 C   0  0  0  0  0  0  0  0  0  0  0  0
   -0.7500    1.2990    0.0000 N   0  0  0  0  0  0  0  0  0  0  0  0
    0.7500    1.2990    0.0000 C   0  0  0  0  0  0  0  0  0  0  0  0
  1  2  1  0
  2  3  1  0
  3  4  2  0
  4  5  1  0
  5  6  2  0
  6  7  1  0
  7  8  2  0
  8  9  1  0
  9 10  2  0
 10 11  1  0
 11 12  1  0
 12 13  2  0
 13 14  1  0
 14 15  2  0
 15 16  1  0
 16 17  2  0
 16 18  1  0
 18 19  1  0
 15 20  1  0
 20 21  1  0
  6 22  1  0
 22 23  1  0
 23  3  1  0
 11  7  1  0
 21 12  1  0
M  END
>  <Title>  (90) 
idAADLgen7

$$$$

     RDKit          2D

 42 47  0  0  0  0  0  0  0  0999 V2000
    3.0000    0.0000    0.0000 C   0  0  0  0  0  0  0  0  0  0  0  0
    1.5000    0.0000    0.0000 C   0  0  0  0  0  0  0  0  0  0  0  0
    0.7500   -1.2990    0.0000 C   0  0  0  0  0  0  0  0  0  0  0  0
   -0.7500   -1.2990    0.0000 C   0  0  0  0  0  0  0  0  0  0  0  0
   -1.5000    0.0000    0.0000 C   0  0  0  0  0  0  0  0  0  0  0  0
   -3.0000    0.0000    0.0000 C   0  0  0  0  0  0  0  0  0  0  0  0
   -3.8817   -1.2135    0.0000 N   0  0  0  0  0  0  0  0  0  0  0  0
   -5.3083   -0.7500    0.0000 N   0  0  0  0  0  0  0  0  0  0  0  0
   -5.3083    0.7500    0.0000 N   0  0  0  0  0  0  0  0  0  0  0  0
   -3.8817    1.2135    0.0000 N   0  0  0  0  0  0  0  0  0  0  0  0
   -3.4182    2.6401    0.0000 C   0  0  0  0  0  0  0  0  0  0  0  0
   -1.9509    2.9520    0.0000 C   0  0  0  0  0  0  0  0  0  0  0  0
   -1.4874    4.3786    0.0000 C   0  0  0  0  0  0  0  0  0  0  0  0
   -2.4911    5.4933    0.0000 C   0  0  0  0  0  0  0  0  0  0  0  0
   -2.0276    6.9199    0.0000 C   0  0  0  0  0  0  0  0  0  0  0  0
   -0.5604    7.2317    0.0000 N   0  0  0  0  0  0  0  0  0  0  0  0
   -0.0968    8.6583    0.0000 C   0  0  0  0  0  0  0  0  0  0  0  0
   -1.1005    9.7730    0.0000 O   0  0  0  0  0  0  0  0  0  0  0  0
    1.3704    8.9702    0.0000 N   0  0  0  0  0  0  0  0  0  0  0  0
    1.8339   10.3968    0.0000 C   0  0  0  0  0  0  0  0  0  0  0  0
    0.9522   11.6103    0.0000 N   0  0  0  0  0  0  0  0  0  0  0  0
    1.8339   12.8238    0.0000 N   0  0  0  0  0  0  0  0  0  0  0  0
    3.2605   12.3603    0.0000 N   0  0  0  0  0  0  0  0  0  0  0  0
    3.2605   10.8603    0.0000 N   0  0  0  0  0  0  0  0  0  0  0  0
    4.4740    9.9786    0.0000 C   0  0  0  0  0  0  0  0  0  0  0  0
    4.3172    8.4868    0.0000 C   0  0  0  0  0  0  0  0  0  0  0  0
    5.5308    7.6052    0.0000 C   0  0  0  0  0  0  0  0  0  0  0  0
    6.9011    8.2153    0.0000 C   0  0  0  0  0  0  0  0  0  0  0  0
    7.0579    9.7070    0.0000 C   0  0  0  0  0  0  0  0  0  0  0  0
    5.8443   10.5887    0.0000 C   0  0  0  0  0  0  0  0  0  0  0  0
   -3.9583    5.1814    0.0000 C   0  0  0  0  0  0  0  0  0  0  0  0
   -4.4218    3.7548    0.0000 C   0  0  0  0  0  0  0  0  0  0  0  0
   -5.8891    3.4430    0.0000 C   0  0  0  0  0  0  0  0  0  0  0  0
   -6.8928    4.5577    0.0000 C   0  0  0  0  0  0  0  0  0  0  0  0
   -8.3600    4.2458    0.0000 C   0  0  0  0  0  0  0  0  0  0  0  0
   -8.8235    2.8192    0.0000 C   0  0  0  0  0  0  0  0  0  0  0  0
  -10.2907    2.5074    0.0000 C   0  0  0  0  0  0  0  0  0  0  0  0
   -7.8198    1.7045    0.0000 C   0  0  0  0  0  0  0  0  0  0  0  0
   -8.2833    0.2779    0.0000 O   0  0  0  0  0  0  0  0  0  0  0  0
   -6.3526    2.0164    0.0000 N   0  0  0  0  0  0  0  0  0  0  0  0
   -0.7500    1.2990    0.0000 N   0  0  0  0  0  0  0  0  0  0  0  0
    0.7500    1.2990    0.0000 C   0  0  0  0  0  0  0  0  0  0  0  0
  1  2  1  0
  2  3  2  0
  3  4  1  0
  4  5  2  0
  5  6  1  0
  6  7  2  0
  7  8  1  0
  8  9  2  0
  9 10  1  0
 10 11  1  0
 11 12  2  0
 12 13  1  0
 13 14  2  0
 14 15  1  0
 15 16  1  0
 16 17  1  0
 17 18  2  0
 17 19  1  0
 19 20  1  0
 20 21  2  0
 21 22  1  0
 22 23  2  0
 23 24  1  0
 24 25  1  0
 25 26  2  0
 26 27  1  0
 27 28  2  0
 28 29  1  0
 29 30  2  0
 14 31  1  0
 31 32  2  0
 32 33  1  0
 33 34  2  0
 34 35  1  0
 35 36  2  0
 36 37  1  0
 36 38  1  0
 38 39  2  0
 38 40  1  0
  5 41  1  0
 41 42  1  0
 42  2  1  0
 10  6  1  0
 32 11  1  0
 40 33  1  0
 24 20  1  0
 30 25  1  0
M  END
>  <Title>  (91) 
idAADMgen7

$$$$

     RDKit          2D

 21 23  0  0  0  0  0  0  0  0999 V2000
   -0.2487    5.6515    0.0000 C   0  0  0  0  0  0  0  0  0  0  0  0
    0.1935    4.2182    0.0000 C   0  0  0  0  0  0  0  0  0  0  0  0
    1.6559    3.8844    0.0000 C   0  0  0  0  0  0  0  0  0  0  0  0
    2.0980    2.4510    0.0000 C   0  0  0  0  0  0  0  0  0  0  0  0
    1.0777    1.3515    0.0000 C   0  0  0  0  0  0  0  0  0  0  0  0
    1.7286    0.0000    0.0000 C   0  0  0  0  0  0  0  0  0  0  0  0
    1.0777   -1.3515    0.0000 C   0  0  0  0  0  0  0  0  0  0  0  0
   -0.3846   -1.6852    0.0000 C   0  0  0  0  0  0  0  0  0  0  0  0
   -1.5574   -0.7500    0.0000 C   0  0  0  0  0  0  0  0  0  0  0  0
   -2.9088   -1.4008    0.0000 C   0  0  0  0  0  0  0  0  0  0  0  0
   -3.0209   -2.8966    0.0000 O   0  0  0  0  0  0  0  0  0  0  0  0
   -4.1482   -0.5558    0.0000 N   0  0  0  0  0  0  0  0  0  0  0  0
   -5.4997   -1.2067    0.0000 C   0  0  0  0  0  0  0  0  0  0  0  0
   -6.7390   -0.3617    0.0000 C   0  0  0  0  0  0  0  0  0  0  0  0
   -8.0905   -1.0125    0.0000 C   0  0  0  0  0  0  0  0  0  0  0  0
   -8.2026   -2.5083    0.0000 C   0  0  0  0  0  0  0  0  0  0  0  0
   -6.9632   -3.3533    0.0000 C   0  0  0  0  0  0  0  0  0  0  0  0
   -5.6118   -2.7025    0.0000 C   0  0  0  0  0  0  0  0  0  0  0  0
   -1.5574    0.7500    0.0000 C   0  0  0  0  0  0  0  0  0  0  0  0
   -0.3846    1.6852    0.0000 C   0  0  0  0  0  0  0  0  0  0  0  0
   -0.8268    3.1186    0.0000 C   0  0  0  0  0  0  0  0  0  0  0  0
  1  2  1  0
  2  3  2  0
  3  4  1  0
  4  5  2  0
  5  6  1  0
  6  7  2  0
  7  8  1  0
  8  9  2  0
  9 10  1  0
 10 11  2  0
 10 12  1  0
 12 13  1  0
 13 14  2  0
 14 15  1  0
 15 16  2  0
 16 17  1  0
 17 18  2  0
  9 19  1  0
 19 20  2  0
 20 21  1  0
 21  2  1  0
 20  5  1  0
 18 13  1  0
M  END
>  <Title>  (92) 
idAADNgen7

$$$$

     RDKit          2D

 36 40  0  0  0  0  0  0  0  0999 V2000
   -1.3834    6.7220    0.0000 C   0  0  0  0  0  0  0  0  0  0  0  0
   -1.2266    5.2302    0.0000 O   0  0  0  0  0  0  0  0  0  0  0  0
    0.1437    4.6201    0.0000 C   0  0  0  0  0  0  0  0  0  0  0  0
    0.4556    3.1529    0.0000 C   0  0  0  0  0  0  0  0  0  0  0  0
    1.9474    2.9961    0.0000 C   0  0  0  0  0  0  0  0  0  0  0  0
    2.5575    4.3664    0.0000 C   0  0  0  0  0  0  0  0  0  0  0  0
    4.0247    4.6782    0.0000 N   0  0  0  0  0  0  0  0  0  0  0  0
    5.0284    3.5635    0.0000 C   0  0  0  0  0  0  0  0  0  0  0  0
    4.5649    2.1369    0.0000 O   0  0  0  0  0  0  0  0  0  0  0  0
    6.4956    3.8754    0.0000 C   0  0  0  0  0  0  0  0  0  0  0  0
    7.1057    5.2457    0.0000 N   0  0  0  0  0  0  0  0  0  0  0  0
    8.5975    5.0889    0.0000 N   0  0  0  0  0  0  0  0  0  0  0  0
    8.9094    3.6217    0.0000 N   0  0  0  0  0  0  0  0  0  0  0  0
    7.6104    2.8717    0.0000 N   0  0  0  0  0  0  0  0  0  0  0  0
    7.4536    1.3799    0.0000 C   0  0  0  0  0  0  0  0  0  0  0  0
    8.5683    0.3762    0.0000 C   0  0  0  0  0  0  0  0  0  0  0  0
    7.9582   -0.9941    0.0000 C   0  0  0  0  0  0  0  0  0  0  0  0
    6.4664   -0.8373    0.0000 C   0  0  0  0  0  0  0  0  0  0  0  0
    5.4627   -1.9520    0.0000 C   0  0  0  0  0  0  0  0  0  0  0  0
    5.9262   -3.3786    0.0000 O   0  0  0  0  0  0  0  0  0  0  0  0
    3.9955   -1.6402    0.0000 N   0  0  0  0  0  0  0  0  0  0  0  0
    2.9918   -2.7549    0.0000 C   0  0  0  0  0  0  0  0  0  0  0  0
    3.3037   -4.2221    0.0000 N   0  0  0  0  0  0  0  0  0  0  0  0
    2.0046   -4.9721    0.0000 N   0  0  0  0  0  0  0  0  0  0  0  0
    0.8899   -3.9684    0.0000 N   0  0  0  0  0  0  0  0  0  0  0  0
    1.5000   -2.5981    0.0000 N   0  0  0  0  0  0  0  0  0  0  0  0
    0.7500   -1.2990    0.0000 C   0  0  0  0  0  0  0  0  0  0  0  0
    1.5000    0.0000    0.0000 C   0  0  0  0  0  0  0  0  0  0  0  0
    0.7500    1.2990    0.0000 C   0  0  0  0  0  0  0  0  0  0  0  0
   -0.7500    1.2990    0.0000 C   0  0  0  0  0  0  0  0  0  0  0  0
   -1.5000    0.0000    0.0000 C   0  0  0  0  0  0  0  0  0  0  0  0
   -0.7500   -1.2990    0.0000 C   0  0  0  0  0  0  0  0  0  0  0  0
    6.1545    0.6299    0.0000 C   0  0  0  0  0  0  0  0  0  0  0  0
    4.7842    1.2400    0.0000 N   0  0  0  0  0  0  0  0  0  0  0  0
    3.5707    0.3583    0.0000 O   0  0  0  0  0  0  0  0  0  0  0  0
    1.4428    5.3701    0.0000 N   0  0  0  0  0  0  0  0  0  0  0  0
  1  2  1  0
  2  3  1  0
  3  4  2  0
  4  5  1  0
  5  6  2  0
  6  7  1  0
  7  8  1  0
  8  9  2  0
  8 10  1  0
 10 11  2  0
 11 12  1  0
 12 13  2  0
 13 14  1  0
 14 15  1  0
 15 16  2  0
 16 17  1  0
 17 18  2  0
 18 19  1  0
 19 20  2  0
 19 21  1  0
 21 22  1  0
 22 23  2  0
 23 24  1  0
 24 25  2  0
 25 26  1  0
 26 27  1  0
 27 28  2  0
 28 29  1  0
 29 30  2  0
 30 31  1  0
 31 32  2  0
 18 33  1  0
 33 34  2  3
 34 35  1  0
  6 36  1  0
 36  3  1  0
 14 10  1  0
 33 15  1  0
 26 22  1  0
 32 27  1  0
M  END
>  <Title>  (93) 
idAADOgen7

$$$$

     RDKit          2D

 28 31  0  0  0  0  0  0  0  0999 V2000
    3.7500   -1.2990    0.0000 C   0  0  0  0  0  0  0  0  0  0  0  0
    3.0000    0.0000    0.0000 O   0  0  0  0  0  0  0  0  0  0  0  0
    1.5000    0.0000    0.0000 C   0  0  0  0  0  0  0  0  0  0  0  0
    0.7500   -1.2990    0.0000 C   0  0  0  0  0  0  0  0  0  0  0  0
   -0.7500   -1.2990    0.0000 C   0  0  0  0  0  0  0  0  0  0  0  0
   -1.5000    0.0000    0.0000 C   0  0  0  0  0  0  0  0  0  0  0  0
   -3.0000    0.0000    0.0000 N   0  0  0  0  0  0  0  0  0  0  0  0
   -3.8817   -1.2135    0.0000 C   0  0  0  0  0  0  0  0  0  0  0  0
   -5.3083   -0.7500    0.0000 N   0  0  0  0  0  0  0  0  0  0  0  0
   -5.3083    0.7500    0.0000 C   0  0  0  0  0  0  0  0  0  0  0  0
   -6.5218    1.6317    0.0000 C   0  0  0  0  0  0  0  0  0  0  0  0
   -7.8921    1.0216    0.0000 O   0  0  0  0  0  0  0  0  0  0  0  0
   -6.3650    3.1235    0.0000 N   0  0  0  0  0  0  0  0  0  0  0  0
   -7.5785    4.0051    0.0000 C   0  0  0  0  0  0  0  0  0  0  0  0
   -9.0051    3.5416    0.0000 N   0  0  0  0  0  0  0  0  0  0  0  0
   -9.8868    4.7551    0.0000 N   0  0  0  0  0  0  0  0  0  0  0  0
   -9.0051    5.9687    0.0000 N   0  0  0  0  0  0  0  0  0  0  0  0
   -7.5785    5.5051    0.0000 N   0  0  0  0  0  0  0  0  0  0  0  0
   -6.3650    6.3868    0.0000 C   0  0  0  0  0  0  0  0  0  0  0  0
   -4.9947    5.7767    0.0000 C   0  0  0  0  0  0  0  0  0  0  0  0
   -3.7812    6.6584    0.0000 C   0  0  0  0  0  0  0  0  0  0  0  0
   -3.9379    8.1502    0.0000 C   0  0  0  0  0  0  0  0  0  0  0  0
   -5.3083    8.7603    0.0000 C   0  0  0  0  0  0  0  0  0  0  0  0
   -6.5218    7.8786    0.0000 C   0  0  0  0  0  0  0  0  0  0  0  0
   -3.8817    1.2135    0.0000 C   0  0  0  0  0  0  0  0  0  0  0  0
   -0.7500    1.2990    0.0000 C   0  0  0  0  0  0  0  0  0  0  0  0
   -1.5000    2.5981    0.0000 O   0  0  0  0  0  0  0  0  0  0  0  0
    0.7500    1.2990    0.0000 N   0  0  0  0  0  0  0  0  0  0  0  0
  1  2  1  0
  2  3  1  0
  3  4  2  0
  4  5  1  0
  5  6  2  0
  6  7  1  0
  7  8  1  0
  8  9  2  0
  9 10  1  0
 10 11  1  0
 11 12  2  0
 11 13  1  0
 13 14  1  0
 14 15  2  0
 15 16  1  0
 16 17  2  0
 17 18  1  0
 18 19  1  0
 19 20  2  0
 20 21  1  0
 21 22  2  0
 22 23  1  0
 23 24  2  0
 10 25  2  0
  6 26  1  0
 26 27  2  0
 26 28  1  0
 28  3  1  0
 25  7  1  0
 18 14  1  0
 24 19  1  0
M  END
>  <Title>  (94) 
idAADPgen7

$$$$

     RDKit          2D

 47 54  0  0  0  0  0  0  0  0999 V2000
    3.0000    0.0000    0.0000 C   0  0  0  0  0  0  0  0  0  0  0  0
    1.5000    0.0000    0.0000 C   0  0  0  0  0  0  0  0  0  0  0  0
    0.7500    1.2990    0.0000 C   0  0  0  0  0  0  0  0  0  0  0  0
   -0.7500    1.2990    0.0000 C   0  0  0  0  0  0  0  0  0  0  0  0
   -1.5000    0.0000    0.0000 C   0  0  0  0  0  0  0  0  0  0  0  0
   -3.0000    0.0000    0.0000 C   0  0  0  0  0  0  0  0  0  0  0  0
   -3.8817   -1.2135    0.0000 N   0  0  0  0  0  0  0  0  0  0  0  0
   -5.3083   -0.7500    0.0000 N   0  0  0  0  0  0  0  0  0  0  0  0
   -5.3083    0.7500    0.0000 N   0  0  0  0  0  0  0  0  0  0  0  0
   -3.8817    1.2135    0.0000 N   0  0  0  0  0  0  0  0  0  0  0  0
   -3.4182    2.6401    0.0000 C   0  0  0  0  0  0  0  0  0  0  0  0
   -1.9509    2.9520    0.0000 C   0  0  0  0  0  0  0  0  0  0  0  0
   -1.4874    4.3786    0.0000 C   0  0  0  0  0  0  0  0  0  0  0  0
   -2.4911    5.4933    0.0000 C   0  0  0  0  0  0  0  0  0  0  0  0
   -2.0276    6.9199    0.0000 C   0  0  0  0  0  0  0  0  0  0  0  0
   -0.5604    7.2317    0.0000 C   0  0  0  0  0  0  0  0  0  0  0  0
   -0.0968    8.6583    0.0000 C   0  0  0  0  0  0  0  0  0  0  0  0
   -1.1005    9.7730    0.0000 C   0  0  0  0  0  0  0  0  0  0  0  0
   -0.6370   11.1996    0.0000 C   0  0  0  0  0  0  0  0  0  0  0  0
    0.8302   11.5115    0.0000 C   0  0  0  0  0  0  0  0  0  0  0  0
    1.2937   12.9381    0.0000 C   0  0  0  0  0  0  0  0  0  0  0  0
    0.2901   14.0528    0.0000 C   0  0  0  0  0  0  0  0  0  0  0  0
   -1.1772   13.7409    0.0000 C   0  0  0  0  0  0  0  0  0  0  0  0
   -1.6407   12.3143    0.0000 C   0  0  0  0  0  0  0  0  0  0  0  0
   -2.5677    9.4612    0.0000 C   0  0  0  0  0  0  0  0  0  0  0  0
   -3.0313    8.0346    0.0000 C   0  0  0  0  0  0  0  0  0  0  0  0
   -4.4985    7.7227    0.0000 C   0  0  0  0  0  0  0  0  0  0  0  0
   -5.1086    6.3524    0.0000 N   0  0  0  0  0  0  0  0  0  0  0  0
   -6.6004    6.5092    0.0000 N   0  0  0  0  0  0  0  0  0  0  0  0
   -6.9122    7.9764    0.0000 N   0  0  0  0  0  0  0  0  0  0  0  0
   -5.6132    8.7264    0.0000 N   0  0  0  0  0  0  0  0  0  0  0  0
   -5.4564   10.2182    0.0000 C   0  0  0  0  0  0  0  0  0  0  0  0
   -4.1574   10.9682    0.0000 N   0  0  0  0  0  0  0  0  0  0  0  0
   -4.4692   12.4354    0.0000 N   0  0  0  0  0  0  0  0  0  0  0  0
   -5.9610   12.5922    0.0000 N   0  0  0  0  0  0  0  0  0  0  0  0
   -6.5711   11.2219    0.0000 N   0  0  0  0  0  0  0  0  0  0  0  0
   -8.0384   10.9100    0.0000 C   0  0  0  0  0  0  0  0  0  0  0  0
   -9.0421   12.0247    0.0000 C   0  0  0  0  0  0  0  0  0  0  0  0
  -10.5093   11.7129    0.0000 C   0  0  0  0  0  0  0  0  0  0  0  0
  -10.9728   10.2863    0.0000 C   0  0  0  0  0  0  0  0  0  0  0  0
   -9.9691    9.1716    0.0000 C   0  0  0  0  0  0  0  0  0  0  0  0
   -8.5019    9.4834    0.0000 C   0  0  0  0  0  0  0  0  0  0  0  0
   -3.9583    5.1814    0.0000 C   0  0  0  0  0  0  0  0  0  0  0  0
   -4.4218    3.7548    0.0000 C   0  0  0  0  0  0  0  0  0  0  0  0
   -0.7500   -1.2990    0.0000 C   0  0  0  0  0  0  0  0  0  0  0  0
   -1.5000   -2.5981    0.0000 O   0  0  0  0  0  0  0  0  0  0  0  0
    0.7500   -1.2990    0.0000 N   0  0  0  0  0  0  0  0  0  0  0  0
  1  2  1  0
  2  3  2  0
  3  4  1  0
  4  5  2  0
  5  6  1  0
  6  7  2  0
  7  8  1  0
  8  9  2  0
  9 10  1  0
 10 11  1  0
 11 12  2  0
 12 13  1  0
 13 14  2  0
 14 15  1  0
 15 16  2  0
 16 17  1  0
 17 18  2  0
 18 19  1  0
 19 20  2  0
 20 21  1  0
 21 22  2  0
 22 23  1  0
 23 24  2  0
 18 25  1  0
 25 26  2  0
 26 27  1  0
 27 28  2  0
 28 29  1  0
 29 30  2  0
 30 31  1  0
 31 32  1  0
 32 33  2  0
 33 34  1  0
 34 35  2  0
 35 36  1  0
 36 37  1  0
 37 38  2  0
 38 39  1  0
 39 40  2  0
 40 41  1  0
 41 42  2  0
 14 43  1  0
 43 44  2  0
  5 45  1  0
 45 46  2  0
 45 47  1  0
 47  2  1  0
 10  6  1  0
 44 11  1  0
 26 15  1  0
 31 27  1  0
 36 32  1  0
 42 37  1  0
 24 19  1  0
M  END
>  <Title>  (95) 
idAADQgen7

$$$$

     RDKit          2D

 12 13  0  0  0  0  0  0  0  0999 V2000
   -3.0000   -5.1962    0.0000 C   0  0  0  0  0  0  0  0  0  0  0  0
   -1.5000   -5.1962    0.0000 O   0  0  0  0  0  0  0  0  0  0  0  0
   -0.7500   -3.8971    0.0000 C   0  0  0  0  0  0  0  0  0  0  0  0
    0.7500   -3.8971    0.0000 C   0  0  0  0  0  0  0  0  0  0  0  0
    1.5000   -2.5981    0.0000 C   0  0  0  0  0  0  0  0  0  0  0  0
    0.7500   -1.2990    0.0000 C   0  0  0  0  0  0  0  0  0  0  0  0
    1.5000    0.0000    0.0000 C   0  0  0  0  0  0  0  0  0  0  0  0
    0.7500    1.2990    0.0000 C   0  0  0  0  0  0  0  0  0  0  0  0
   -0.7500    1.2990    0.0000 C   0  0  0  0  0  0  0  0  0  0  0  0
   -1.5000    0.0000    0.0000 C   0  0  0  0  0  0  0  0  0  0  0  0
   -0.7500   -1.2990    0.0000 C   0  0  0  0  0  0  0  0  0  0  0  0
   -1.5000   -2.5981    0.0000 N   0  0  0  0  0  0  0  0  0  0  0  0
  1  2  1  0
  2  3  1  0
  3  4  2  0
  4  5  1  0
  5  6  2  0
  6  7  1  0
  7  8  1  0
  8  9  1  0
  9 10  1  0
 10 11  1  0
 11 12  1  0
 12  3  1  0
 11  6  1  0
M  END
>  <Title>  (96) 
idAADRgen7

$$$$

     RDKit          2D

 33 36  0  0  0  0  0  0  0  0999 V2000
    3.0000    0.0000    0.0000 C   0  0  0  0  0  0  0  0  0  0  0  0
    1.5000    0.0000    0.0000 C   0  0  0  0  0  0  0  0  0  0  0  0
    0.7500   -1.2990    0.0000 C   0  0  0  0  0  0  0  0  0  0  0  0
   -0.7500   -1.2990    0.0000 C   0  0  0  0  0  0  0  0  0  0  0  0
   -1.5000    0.0000    0.0000 C   0  0  0  0  0  0  0  0  0  0  0  0
   -3.0000    0.0000    0.0000 C   0  0  0  0  0  0  0  0  0  0  0  0
   -3.7500   -1.2990    0.0000 O   0  0  0  0  0  0  0  0  0  0  0  0
   -3.7500    1.2990    0.0000 N   0  0  0  0  0  0  0  0  0  0  0  0
   -5.2500    1.2990    0.0000 C   0  0  0  0  0  0  0  0  0  0  0  0
   -6.1317    0.0855    0.0000 N   0  0  0  0  0  0  0  0  0  0  0  0
   -7.5583    0.5490    0.0000 N   0  0  0  0  0  0  0  0  0  0  0  0
   -7.5583    2.0490    0.0000 N   0  0  0  0  0  0  0  0  0  0  0  0
   -6.1317    2.5126    0.0000 N   0  0  0  0  0  0  0  0  0  0  0  0
   -5.6682    3.9391    0.0000 C   0  0  0  0  0  0  0  0  0  0  0  0
   -6.5498    5.1527    0.0000 C   0  0  0  0  0  0  0  0  0  0  0  0
   -5.6682    6.3662    0.0000 C   0  0  0  0  0  0  0  0  0  0  0  0
   -6.1317    7.7928    0.0000 C   0  0  0  0  0  0  0  0  0  0  0  0
   -7.5989    8.1047    0.0000 O   0  0  0  0  0  0  0  0  0  0  0  0
   -5.1280    8.9075    0.0000 N   0  0  0  0  0  0  0  0  0  0  0  0
   -5.5915   10.3341    0.0000 C   0  0  0  0  0  0  0  0  0  0  0  0
   -7.0587   10.6460    0.0000 O   0  0  0  0  0  0  0  0  0  0  0  0
   -4.5878   11.4488    0.0000 N   0  0  0  0  0  0  0  0  0  0  0  0
   -5.0513   12.8754    0.0000 C   0  0  0  0  0  0  0  0  0  0  0  0
   -4.0476   13.9901    0.0000 C   0  0  0  0  0  0  0  0  0  0  0  0
   -4.5112   15.4167    0.0000 C   0  0  0  0  0  0  0  0  0  0  0  0
   -5.9784   15.7286    0.0000 C   0  0  0  0  0  0  0  0  0  0  0  0
   -6.9821   14.6138    0.0000 C   0  0  0  0  0  0  0  0  0  0  0  0
   -6.5186   13.1873    0.0000 C   0  0  0  0  0  0  0  0  0  0  0  0
   -4.2416    5.9027    0.0000 C   0  0  0  0  0  0  0  0  0  0  0  0
   -4.2416    4.4027    0.0000 C   0  0  0  0  0  0  0  0  0  0  0  0
   -0.7500    1.2990    0.0000 C   0  0  0  0  0  0  0  0  0  0  0  0
   -1.5000    2.5981    0.0000 O   0  0  0  0  0  0  0  0  0  0  0  0
    0.7500    1.2990    0.0000 N   0  0  0  0  0  0  0  0  0  0  0  0
  1  2  1  0
  2  3  2  0
  3  4  1  0
  4  5  2  0
  5  6  1  0
  6  7  2  0
  6  8  1  0
  8  9  1  0
  9 10  2  0
 10 11  1  0
 11 12  2  0
 12 13  1  0
 13 14  1  0
 14 15  2  0
 15 16  1  0
 16 17  1  0
 17 18  2  0
 17 19  1  0
 19 20  1  0
 20 21  2  0
 20 22  1  0
 22 23  1  0
 23 24  2  0
 24 25  1  0
 25 26  2  0
 26 27  1  0
 27 28  2  0
 16 29  1  0
 29 30  2  0
  5 31  1  0
 31 32  2  0
 31 33  1  0
 33  2  1  0
 13  9  1  0
 30 14  1  0
 28 23  1  0
M  END
>  <Title>  (97) 
idAADSgen7

$$$$

     RDKit          2D

 16 17  0  0  0  0  0  0  0  0999 V2000
    4.9233    5.9293    0.0000 O   0  0  0  0  0  0  0  0  0  0  0  0
    3.4233    5.9293    0.0000 C   0  0  0  0  0  0  0  0  0  0  0  0
    2.6733    4.6303    0.0000 C   0  0  0  0  0  0  0  0  0  0  0  0
    3.5183    3.3909    0.0000 C   0  0  0  0  0  0  0  0  0  0  0  0
    3.0761    1.9576    0.0000 C   0  0  0  0  0  0  0  0  0  0  0  0
    1.6798    1.4095    0.0000 C   0  0  0  0  0  0  0  0  0  0  0  0
    2.1929    0.0000    0.0000 C   0  0  0  0  0  0  0  0  0  0  0  0
    1.6798   -1.4095    0.0000 C   0  0  0  0  0  0  0  0  0  0  0  0
    0.3808   -2.1595    0.0000 C   0  0  0  0  0  0  0  0  0  0  0  0
   -1.0964   -1.8991    0.0000 C   0  0  0  0  0  0  0  0  0  0  0  0
   -2.0606   -0.7500    0.0000 C   0  0  0  0  0  0  0  0  0  0  0  0
   -2.0606    0.7500    0.0000 C   0  0  0  0  0  0  0  0  0  0  0  0
   -1.0964    1.8991    0.0000 C   0  0  0  0  0  0  0  0  0  0  0  0
    0.3808    2.1595    0.0000 C   0  0  0  0  0  0  0  0  0  0  0  0
    0.1572    3.6428    0.0000 C   0  0  0  0  0  0  0  0  0  0  0  0
    1.1775    4.7424    0.0000 C   0  0  0  0  0  0  0  0  0  0  0  0
  1  2  1  0
  2  3  1  0
  3  4  2  0
  4  5  1  0
  5  6  2  0
  6  7  1  0
  7  8  2  0
  8  9  1  0
  9 10  2  0
 10 11  1  0
 11 12  2  0
 12 13  1  0
 13 14  2  0
 14 15  1  0
 15 16  2  0
 16  3  1  0
 14  6  1  0
M  END
>  <Title>  (98) 
idAADTgen7

$$$$

     RDKit          2D

 32 32  0  0  0  0  0  0  0  0999 V2000
    9.4251   -1.2990    0.0000 C   0  0  0  0  0  0  0  0  0  0  0  0
    8.6751   -0.0000    0.0000 O   0  0  0  0  0  0  0  0  0  0  0  0
    7.1751    0.0000    0.0000 C   0  0  0  0  0  0  0  0  0  0  0  0
    7.0183   -1.4918    0.0000 C   0  0  0  0  0  0  0  0  0  0  0  0
    6.5548   -2.9184    0.0000 C   0  0  0  0  0  0  0  0  0  0  0  0
    5.8048   -4.2174    0.0000 C   0  0  0  0  0  0  0  0  0  0  0  0
    4.8011   -5.3321    0.0000 C   0  0  0  0  0  0  0  0  0  0  0  0
    3.5875   -6.2138    0.0000 C   0  0  0  0  0  0  0  0  0  0  0  0
    2.2172   -6.8239    0.0000 C   0  0  0  0  0  0  0  0  0  0  0  0
    0.7500   -7.1358    0.0000 C   0  0  0  0  0  0  0  0  0  0  0  0
   -0.7500   -7.1358    0.0000 C   0  0  0  0  0  0  0  0  0  0  0  0
   -2.2172   -6.8239    0.0000 C   0  0  0  0  0  0  0  0  0  0  0  0
   -3.5875   -6.2138    0.0000 C   0  0  0  0  0  0  0  0  0  0  0  0
   -4.8011   -5.3321    0.0000 C   0  0  0  0  0  0  0  0  0  0  0  0
   -5.8048   -4.2174    0.0000 C   0  0  0  0  0  0  0  0  0  0  0  0
   -6.5548   -2.9184    0.0000 C   0  0  0  0  0  0  0  0  0  0  0  0
   -7.0183   -1.4918    0.0000 C   0  0  0  0  0  0  0  0  0  0  0  0
   -7.1751    0.0000    0.0000 C   0  0  0  0  0  0  0  0  0  0  0  0
   -7.0183    1.4918    0.0000 C   0  0  0  0  0  0  0  0  0  0  0  0
   -6.5548    2.9184    0.0000 C   0  0  0  0  0  0  0  0  0  0  0  0
   -5.8048    4.2174    0.0000 C   0  0  0  0  0  0  0  0  0  0  0  0
   -4.8011    5.3321    0.0000 C   0  0  0  0  0  0  0  0  0  0  0  0
   -3.5875    6.2138    0.0000 C   0  0  0  0  0  0  0  0  0  0  0  0
   -2.2172    6.8239    0.0000 C   0  0  0  0  0  0  0  0  0  0  0  0
   -0.7500    7.1358    0.0000 C   0  0  0  0  0  0  0  0  0  0  0  0
    0.7500    7.1358    0.0000 C   0  0  0  0  0  0  0  0  0  0  0  0
    2.2172    6.8239    0.0000 C   0  0  0  0  0  0  0  0  0  0  0  0
    3.5875    6.2138    0.0000 C   0  0  0  0  0  0  0  0  0  0  0  0
    4.8011    5.3321    0.0000 C   0  0  0  0  0  0  0  0  0  0  0  0
    5.8048    4.2174    0.0000 C   0  0  0  0  0  0  0  0  0  0  0  0
    6.5548    2.9184    0.0000 C   0  0  0  0  0  0  0  0  0  0  0  0
    7.0183    1.4918    0.0000 C   0  0  0  0  0  0  0  0  0  0  0  0
  1  2  1  0
  2  3  1  0
  3  4  2  0
  4  5  1  0
  5  6  2  0
  6  7  1  0
  7  8  2  0
  8  9  1  0
  9 10  2  0
 10 11  1  0
 11 12  2  0
 12 13  1  0
 13 14  2  0
 14 15  1  0
 15 16  2  0
 16 17  1  0
 17 18  2  0
 18 19  1  0
 19 20  2  0
 20 21  1  0
 21 22  2  0
 22 23  1  0
 23 24  2  0
 24 25  1  0
 25 26  2  0
 26 27  1  0
 27 28  2  0
 28 29  1  0
 29 30  2  0
 30 31  1  0
 31 32  2  0
 32  3  1  0
M  END
>  <Title>  (99) 
idAADUgen7

$$$$

     RDKit          2D

 46 52  0  0  0  0  0  0  0  0999 V2000
    3.0000    0.0000    0.0000 C   0  0  0  0  0  0  0  0  0  0  0  0
    1.5000    0.0000    0.0000 C   0  0  0  0  0  0  0  0  0  0  0  0
    0.7500   -1.2990    0.0000 C   0  0  0  0  0  0  0  0  0  0  0  0
   -0.7500   -1.2990    0.0000 C   0  0  0  0  0  0  0  0  0  0  0  0
   -1.5000    0.0000    0.0000 C   0  0  0  0  0  0  0  0  0  0  0  0
   -2.9095   -0.5130    0.0000 C   0  0  0  0  0  0  0  0  0  0  0  0
   -2.9095   -2.0130    0.0000 O   0  0  0  0  0  0  0  0  0  0  0  0
   -4.3191    0.0000    0.0000 N   0  0  0  0  0  0  0  0  0  0  0  0
   -5.0691    1.2990    0.0000 C   0  0  0  0  0  0  0  0  0  0  0  0
   -6.5463    1.0386    0.0000 C   0  0  0  0  0  0  0  0  0  0  0  0
   -7.2038   -0.3096    0.0000 N   0  0  0  0  0  0  0  0  0  0  0  0
   -8.6892   -0.1009    0.0000 N   0  0  0  0  0  0  0  0  0  0  0  0
   -8.9497    1.3763    0.0000 N   0  0  0  0  0  0  0  0  0  0  0  0
   -7.6253    2.0806    0.0000 N   0  0  0  0  0  0  0  0  0  0  0  0
   -7.4165    3.5660    0.0000 C   0  0  0  0  0  0  0  0  0  0  0  0
   -6.0258    4.1279    0.0000 C   0  0  0  0  0  0  0  0  0  0  0  0
   -5.8170    5.6133    0.0000 C   0  0  0  0  0  0  0  0  0  0  0  0
   -6.9990    6.5368    0.0000 C   0  0  0  0  0  0  0  0  0  0  0  0
   -6.7903    8.0222    0.0000 C   0  0  0  0  0  0  0  0  0  0  0  0
   -7.8693    9.0641    0.0000 N   0  0  0  0  0  0  0  0  0  0  0  0
   -7.2117   10.4123    0.0000 N   0  0  0  0  0  0  0  0  0  0  0  0
   -5.7263   10.2036    0.0000 N   0  0  0  0  0  0  0  0  0  0  0  0
   -5.4658    8.7264    0.0000 N   0  0  0  0  0  0  0  0  0  0  0  0
   -4.1176    8.0688    0.0000 C   0  0  0  0  0  0  0  0  0  0  0  0
   -4.0130    6.5725    0.0000 C   0  0  0  0  0  0  0  0  0  0  0  0
   -2.6648    5.9149    0.0000 N   0  0  0  0  0  0  0  0  0  0  0  0
   -1.4213    6.7537    0.0000 N   0  0  0  0  0  0  0  0  0  0  0  0
   -1.5259    8.2500    0.0000 N   0  0  0  0  0  0  0  0  0  0  0  0
   -2.8741    8.9076    0.0000 N   0  0  0  0  0  0  0  0  0  0  0  0
   -8.3898    5.9748    0.0000 C   0  0  0  0  0  0  0  0  0  0  0  0
   -8.5986    4.4894    0.0000 C   0  0  0  0  0  0  0  0  0  0  0  0
   -9.9893    3.9275    0.0000 C   0  0  0  0  0  0  0  0  0  0  0  0
  -10.3522    2.4721    0.0000 C   0  0  0  0  0  0  0  0  0  0  0  0
  -11.8486    2.3675    0.0000 C   0  0  0  0  0  0  0  0  0  0  0  0
  -12.4105    3.7582    0.0000 C   0  0  0  0  0  0  0  0  0  0  0  0
  -13.8659    4.1211    0.0000 C   0  0  0  0  0  0  0  0  0  0  0  0
  -11.2614    4.7224    0.0000 C   0  0  0  0  0  0  0  0  0  0  0  0
  -11.3660    6.2188    0.0000 O   0  0  0  0  0  0  0  0  0  0  0  0
   -4.8086    2.7762    0.0000 C   0  0  0  0  0  0  0  0  0  0  0  0
   -3.6595    3.7404    0.0000 C   0  0  0  0  0  0  0  0  0  0  0  0
   -2.1595    3.7404    0.0000 C   0  0  0  0  0  0  0  0  0  0  0  0
   -1.6465    5.1500    0.0000 C   0  0  0  0  0  0  0  0  0  0  0  0
   -1.0105    2.7762    0.0000 C   0  0  0  0  0  0  0  0  0  0  0  0
    0.2886    3.5262    0.0000 O   0  0  0  0  0  0  0  0  0  0  0  0
   -0.7500    1.2990    0.0000 C   0  0  0  0  0  0  0  0  0  0  0  0
    0.7500    1.2990    0.0000 C   0  0  0  0  0  0  0  0  0  0  0  0
  1  2  1  0
  2  3  2  0
  3  4  1  0
  4  5  2  0
  5  6  1  0
  6  7  2  0
  6  8  1  0
  8  9  1  0
  9 10  1  0
 10 11  2  0
 11 12  1  0
 12 13  2  0
 13 14  1  0
 14 15  1  0
 15 16  2  0
 16 17  1  0
 17 18  2  0
 18 19  1  0
 19 20  2  0
 20 21  1  0
 21 22  2  0
 22 23  1  0
 23 24  1  0
 24 25  2  0
 25 26  1  0
 26 27  2  0
 27 28  1  0
 28 29  2  0
 18 30  1  0
 30 31  2  0
 31 32  1  0
 32 33  2  0
 33 34  1  0
 34 35  2  0
 35 36  1  0
 35 37  1  0
 37 38  2  0
  9 39  2  0
 39 40  1  0
 40 41  2  0
 41 42  1  0
 41 43  1  0
 43 44  2  0
 43 45  1  0
 45 46  2  0
 46  2  1  0
 45  5  1  0
 14 10  1  0
 31 15  1  0
 37 32  1  0
 23 19  1  0
 29 24  1  0
M  END
>  <Title>  (100) 
idAADVgen7

$$$$

     RDKit          2D

 24 26  0  0  0  0  0  0  0  0999 V2000
    3.0000    0.0000    0.0000 C   0  0  0  0  0  0  0  0  0  0  0  0
    1.5000    0.0000    0.0000 C   0  0  0  0  0  0  0  0  0  0  0  0
    0.7500   -1.2990    0.0000 C   0  0  0  0  0  0  0  0  0  0  0  0
   -0.7500   -1.2990    0.0000 C   0  0  0  0  0  0  0  0  0  0  0  0
   -1.5000    0.0000    0.0000 C   0  0  0  0  0  0  0  0  0  0  0  0
   -3.0000    0.0000    0.0000 N   0  0  0  0  0  0  0  0  0  0  0  0
   -3.7500    1.2990    0.0000 N   0  0  0  0  0  0  0  0  0  0  0  0
   -5.2500    1.2990    0.0000 N   0  0  0  0  0  0  0  0  0  0  0  0
   -6.0000    0.0000    0.0000 N   0  0  0  0  0  0  0  0  0  0  0  0
   -5.2500   -1.2990    0.0000 N   0  0  0  0  0  0  0  0  0  0  0  0
   -3.7500   -1.2990    0.0000 N   0  0  0  0  0  0  0  0  0  0  0  0
   -3.0000   -2.5981    0.0000 C   0  0  0  0  0  0  0  0  0  0  0  0
   -3.7500   -3.8971    0.0000 C   0  0  0  0  0  0  0  0  0  0  0  0
   -3.0000   -5.1962    0.0000 C   0  0  0  0  0  0  0  0  0  0  0  0
   -1.5000   -5.1962    0.0000 C   0  0  0  0  0  0  0  0  0  0  0  0
   -0.7500   -6.4952    0.0000 C   0  0  0  0  0  0  0  0  0  0  0  0
    0.7500   -6.4952    0.0000 O   0  0  0  0  0  0  0  0  0  0  0  0
   -1.5000   -7.7942    0.0000 N   0  0  0  0  0  0  0  0  0  0  0  0
   -0.7500   -9.0933    0.0000 O   0  0  0  0  0  0  0  0  0  0  0  0
   -0.7500   -3.8971    0.0000 C   0  0  0  0  0  0  0  0  0  0  0  0
   -1.5000   -2.5981    0.0000 C   0  0  0  0  0  0  0  0  0  0  0  0
   -0.7500    1.2990    0.0000 C   0  0  0  0  0  0  0  0  0  0  0  0
   -1.5000    2.5981    0.0000 O   0  0  0  0  0  0  0  0  0  0  0  0
    0.7500    1.2990    0.0000 N   0  0  0  0  0  0  0  0  0  0  0  0
  1  2  1  0
  2  3  2  0
  3  4  1  0
  4  5  2  0
  5  6  1  0
  6  7  1  0
  7  8  2  0
  8  9  1  0
  9 10  2  0
 10 11  1  0
 11 12  1  0
 12 13  2  0
 13 14  1  0
 14 15  2  0
 15 16  1  0
 16 17  2  0
 16 18  1  0
 18 19  1  0
 15 20  1  0
 20 21  1  0
  5 22  1  0
 22 23  2  0
 22 24  1  0
 24  2  1  0
 11  6  1  0
 21 12  1  0
M  END
>  <Title>  (101) 
idAADWgen7

$$$$

     RDKit          2D

 39 42  0  0  0  0  0  0  0  0999 V2000
   -4.6305   17.0494    0.0000 C   0  0  0  0  0  0  0  0  0  0  0  0
   -3.8042   15.7975    0.0000 C   0  0  0  0  0  0  0  0  0  0  0  0
   -2.3069   15.8872    0.0000 O   0  0  0  0  0  0  0  0  0  0  0  0
   -4.4751   14.4560    0.0000 N   0  0  0  0  0  0  0  0  0  0  0  0
   -3.6488   13.2041    0.0000 C   0  0  0  0  0  0  0  0  0  0  0  0
   -2.1515   13.2938    0.0000 O   0  0  0  0  0  0  0  0  0  0  0  0
   -4.3198   11.8625    0.0000 C   0  0  0  0  0  0  0  0  0  0  0  0
   -3.4934   10.6107    0.0000 O   0  0  0  0  0  0  0  0  0  0  0  0
   -4.1644    9.2691    0.0000 C   0  0  0  0  0  0  0  0  0  0  0  0
   -3.3380    8.0172    0.0000 C   0  0  0  0  0  0  0  0  0  0  0  0
   -3.8651    6.6129    0.0000 C   0  0  0  0  0  0  0  0  0  0  0  0
   -2.6924    5.6777    0.0000 C   0  0  0  0  0  0  0  0  0  0  0  0
   -1.4405    6.5040    0.0000 C   0  0  0  0  0  0  0  0  0  0  0  0
   -0.0362    5.9769    0.0000 C   0  0  0  0  0  0  0  0  0  0  0  0
    1.1225    6.9296    0.0000 O   0  0  0  0  0  0  0  0  0  0  0  0
    0.2096    4.4972    0.0000 N   0  0  0  0  0  0  0  0  0  0  0  0
    1.6139    3.9701    0.0000 C   0  0  0  0  0  0  0  0  0  0  0  0
    2.8658    4.7965    0.0000 N   0  0  0  0  0  0  0  0  0  0  0  0
    4.0385    3.8613    0.0000 N   0  0  0  0  0  0  0  0  0  0  0  0
    3.5115    2.4569    0.0000 N   0  0  0  0  0  0  0  0  0  0  0  0
    2.0130    2.5242    0.0000 N   0  0  0  0  0  0  0  0  0  0  0  0
    1.0777    1.3515    0.0000 C   0  0  0  0  0  0  0  0  0  0  0  0
    1.7286    0.0000    0.0000 C   0  0  0  0  0  0  0  0  0  0  0  0
    1.0777   -1.3515    0.0000 C   0  0  0  0  0  0  0  0  0  0  0  0
   -0.3846   -1.6852    0.0000 C   0  0  0  0  0  0  0  0  0  0  0  0
   -0.7184   -3.1476    0.0000 C   0  0  0  0  0  0  0  0  0  0  0  0
   -2.1518   -3.5898    0.0000 O   0  0  0  0  0  0  0  0  0  0  0  0
    0.3812   -4.1679    0.0000 N   0  0  0  0  0  0  0  0  0  0  0  0
    0.0474   -5.6303    0.0000 O   0  0  0  0  0  0  0  0  0  0  0  0
   -1.5574   -0.7500    0.0000 C   0  0  0  0  0  0  0  0  0  0  0  0
   -2.9088   -1.4008    0.0000 C   0  0  0  0  0  0  0  0  0  0  0  0
   -4.1482   -0.5558    0.0000 C   0  0  0  0  0  0  0  0  0  0  0  0
   -5.4997   -1.2067    0.0000 C   0  0  0  0  0  0  0  0  0  0  0  0
   -5.6118   -2.7025    0.0000 C   0  0  0  0  0  0  0  0  0  0  0  0
   -4.3724   -3.5475    0.0000 C   0  0  0  0  0  0  0  0  0  0  0  0
   -3.0209   -2.8966    0.0000 C   0  0  0  0  0  0  0  0  0  0  0  0
   -1.5574    0.7500    0.0000 C   0  0  0  0  0  0  0  0  0  0  0  0
   -0.3846    1.6852    0.0000 C   0  0  0  0  0  0  0  0  0  0  0  0
   -1.8396    7.9499    0.0000 C   0  0  0  0  0  0  0  0  0  0  0  0
  1  2  1  0
  2  3  2  0
  2  4  1  0
  4  5  1  0
  5  6  2  0
  5  7  1  0
  7  8  1  0
  8  9  1  0
  9 10  1  0
 10 11  2  0
 11 12  1  0
 12 13  2  0
 13 14  1  0
 14 15  2  0
 14 16  1  0
 16 17  1  0
 17 18  2  0
 18 19  1  0
 19 20  2  0
 20 21  1  0
 21 22  1  0
 22 23  2  0
 23 24  1  0
 24 25  2  0
 25 26  1  0
 26 27  2  0
 26 28  1  0
 28 29  1  0
 25 30  1  0
 30 31  1  0
 31 32  2  0
 32 33  1  0
 33 34  2  0
 34 35  1  0
 35 36  2  0
 30 37  1  0
 37 38  1  0
 13 39  1  0
 39 10  1  0
 21 17  1  0
 38 22  1  0
 36 31  1  0
M  END
>  <Title>  (102) 
idAADXgen7

$$$$

     RDKit          2D

 50 57  0  0  0  0  0  0  0  0999 V2000
  -11.2071    0.3651    0.0000 C   0  0  0  0  0  0  0  0  0  0  0  0
  -11.1398    1.8635    0.0000 C   0  0  0  0  0  0  0  0  0  0  0  0
  -12.4039    2.6711    0.0000 C   0  0  0  0  0  0  0  0  0  0  0  0
  -12.3366    4.1696    0.0000 C   0  0  0  0  0  0  0  0  0  0  0  0
  -11.0053    4.8605    0.0000 C   0  0  0  0  0  0  0  0  0  0  0  0
  -10.9380    6.3590    0.0000 C   0  0  0  0  0  0  0  0  0  0  0  0
  -12.1107    7.2942    0.0000 N   0  0  0  0  0  0  0  0  0  0  0  0
  -11.5836    8.6986    0.0000 N   0  0  0  0  0  0  0  0  0  0  0  0
  -10.0851    8.6313    0.0000 N   0  0  0  0  0  0  0  0  0  0  0  0
   -9.6861    7.1854    0.0000 N   0  0  0  0  0  0  0  0  0  0  0  0
   -8.2817    6.6583    0.0000 C   0  0  0  0  0  0  0  0  0  0  0  0
   -8.0360    5.1786    0.0000 C   0  0  0  0  0  0  0  0  0  0  0  0
   -6.6317    4.6515    0.0000 C   0  0  0  0  0  0  0  0  0  0  0  0
   -5.4730    5.6042    0.0000 C   0  0  0  0  0  0  0  0  0  0  0  0
   -4.0687    5.0771    0.0000 C   0  0  0  0  0  0  0  0  0  0  0  0
   -2.9101    6.0298    0.0000 O   0  0  0  0  0  0  0  0  0  0  0  0
   -3.8230    3.5974    0.0000 N   0  0  0  0  0  0  0  0  0  0  0  0
   -2.4186    3.0703    0.0000 C   0  0  0  0  0  0  0  0  0  0  0  0
   -1.3344    4.1069    0.0000 C   0  0  0  0  0  0  0  0  0  0  0  0
    0.1520    3.9056    0.0000 C   0  0  0  0  0  0  0  0  0  0  0  0
    0.9214    2.6179    0.0000 C   0  0  0  0  0  0  0  0  0  0  0  0
    2.4153    2.7523    0.0000 C   0  0  0  0  0  0  0  0  0  0  0  0
    3.2787    1.5258    0.0000 C   0  0  0  0  0  0  0  0  0  0  0  0
    4.7727    1.6602    0.0000 C   0  0  0  0  0  0  0  0  0  0  0  0
    5.4032    3.0213    0.0000 C   0  0  0  0  0  0  0  0  0  0  0  0
    6.8972    3.1557    0.0000 C   0  0  0  0  0  0  0  0  0  0  0  0
    7.7606    1.9291    0.0000 C   0  0  0  0  0  0  0  0  0  0  0  0
    9.2546    2.0636    0.0000 C   0  0  0  0  0  0  0  0  0  0  0  0
    9.8851    3.4246    0.0000 C   0  0  0  0  0  0  0  0  0  0  0  0
    9.0217    4.6512    0.0000 C   0  0  0  0  0  0  0  0  0  0  0  0
    7.5277    4.5168    0.0000 C   0  0  0  0  0  0  0  0  0  0  0  0
    4.5398    4.2478    0.0000 C   0  0  0  0  0  0  0  0  0  0  0  0
    3.0459    4.1134    0.0000 C   0  0  0  0  0  0  0  0  0  0  0  0
    2.1824    5.3400    0.0000 C   0  0  0  0  0  0  0  0  0  0  0  0
    2.8130    6.7010    0.0000 C   0  0  0  0  0  0  0  0  0  0  0  0
    1.9495    7.9276    0.0000 C   0  0  0  0  0  0  0  0  0  0  0  0
    0.4556    7.7931    0.0000 C   0  0  0  0  0  0  0  0  0  0  0  0
   -0.1750    6.4321    0.0000 C   0  0  0  0  0  0  0  0  0  0  0  0
    0.6885    5.2055    0.0000 C   0  0  0  0  0  0  0  0  0  0  0  0
    0.3943    1.2135    0.0000 C   0  0  0  0  0  0  0  0  0  0  0  0
    1.2760    0.0000    0.0000 N   0  0  0  0  0  0  0  0  0  0  0  0
    0.3943   -1.2135    0.0000 N   0  0  0  0  0  0  0  0  0  0  0  0
   -1.0323   -0.7500    0.0000 N   0  0  0  0  0  0  0  0  0  0  0  0
   -1.0323    0.7500    0.0000 N   0  0  0  0  0  0  0  0  0  0  0  0
   -2.2841    1.5763    0.0000 C   0  0  0  0  0  0  0  0  0  0  0  0
   -3.5718    0.8070    0.0000 O   0  0  0  0  0  0  0  0  0  0  0  0
   -5.7188    7.0839    0.0000 C   0  0  0  0  0  0  0  0  0  0  0  0
   -7.1231    7.6110    0.0000 C   0  0  0  0  0  0  0  0  0  0  0  0
   -9.7412    4.0530    0.0000 C   0  0  0  0  0  0  0  0  0  0  0  0
   -9.8085    2.5545    0.0000 C   0  0  0  0  0  0  0  0  0  0  0  0
  1  2  1  0
  2  3  2  0
  3  4  1  0
  4  5  2  0
  5  6  1  0
  6  7  2  0
  7  8  1  0
  8  9  2  0
  9 10  1  0
 10 11  1  0
 11 12  2  0
 12 13  1  0
 13 14  2  0
 14 15  1  0
 15 16  2  0
 15 17  1  0
 17 18  1  0
 18 19  2  0
 19 20  1  0
 20 21  2  0
 21 22  1  0
 22 23  2  0
 23 24  1  0
 24 25  2  0
 25 26  1  0
 26 27  2  0
 27 28  1  0
 28 29  2  0
 29 30  1  0
 30 31  2  0
 25 32  1  0
 32 33  2  0
 33 34  1  0
 34 35  2  0
 35 36  1  0
 36 37  2  0
 37 38  1  0
 38 39  2  0
 21 40  1  0
 40 41  2  0
 41 42  1  0
 42 43  2  0
 43 44  1  0
 44 45  1  0
 45 46  2  0
 14 47  1  0
 47 48  2  0
  5 49  1  0
 49 50  2  0
 50  2  1  0
 10  6  1  0
 48 11  1  0
 45 18  1  0
 33 22  1  0
 39 34  1  0
 44 40  1  0
 31 26  1  0
M  END
>  <Title>  (103) 
idAADYgen7

$$$$

     RDKit          2D

 49 56  0  0  0  0  0  0  0  0999 V2000
    4.7848    7.6672    0.0000 C   0  0  0  0  0  0  0  0  0  0  0  0
    3.2848    7.6672    0.0000 C   0  0  0  0  0  0  0  0  0  0  0  0
    2.5348    8.9662    0.0000 C   0  0  0  0  0  0  0  0  0  0  0  0
    1.0348    8.9662    0.0000 C   0  0  0  0  0  0  0  0  0  0  0  0
    0.2848    7.6672    0.0000 C   0  0  0  0  0  0  0  0  0  0  0  0
   -1.2152    7.6672    0.0000 C   0  0  0  0  0  0  0  0  0  0  0  0
   -2.0969    8.8807    0.0000 N   0  0  0  0  0  0  0  0  0  0  0  0
   -3.5235    8.4172    0.0000 N   0  0  0  0  0  0  0  0  0  0  0  0
   -3.5235    6.9172    0.0000 N   0  0  0  0  0  0  0  0  0  0  0  0
   -2.0969    6.4536    0.0000 N   0  0  0  0  0  0  0  0  0  0  0  0
   -1.6334    5.0270    0.0000 C   0  0  0  0  0  0  0  0  0  0  0  0
   -0.1343    4.9747    0.0000 C   0  0  0  0  0  0  0  0  0  0  0  0
    0.9804    3.9710    0.0000 C   0  0  0  0  0  0  0  0  0  0  0  0
    1.1892    2.4856    0.0000 C   0  0  0  0  0  0  0  0  0  0  0  0
    2.6564    2.1737    0.0000 C   0  0  0  0  0  0  0  0  0  0  0  0
    3.6601    3.2884    0.0000 O   0  0  0  0  0  0  0  0  0  0  0  0
    3.1199    0.7471    0.0000 N   0  0  0  0  0  0  0  0  0  0  0  0
    4.5871    0.4353    0.0000 C   0  0  0  0  0  0  0  0  0  0  0  0
    5.7019    1.4390    0.0000 N   0  0  0  0  0  0  0  0  0  0  0  0
    7.0009    0.6890    0.0000 N   0  0  0  0  0  0  0  0  0  0  0  0
    6.6890   -0.7782    0.0000 N   0  0  0  0  0  0  0  0  0  0  0  0
    5.1973   -0.9350    0.0000 N   0  0  0  0  0  0  0  0  0  0  0  0
    4.4473   -2.2341    0.0000 C   0  0  0  0  0  0  0  0  0  0  0  0
    2.9473   -2.2341    0.0000 C   0  0  0  0  0  0  0  0  0  0  0  0
    2.1973   -3.5331    0.0000 C   0  0  0  0  0  0  0  0  0  0  0  0
    2.9473   -4.8322    0.0000 C   0  0  0  0  0  0  0  0  0  0  0  0
    4.4473   -4.8322    0.0000 C   0  0  0  0  0  0  0  0  0  0  0  0
    5.1973   -3.5331    0.0000 C   0  0  0  0  0  0  0  0  0  0  0  0
    0.3943    1.2135    0.0000 C   0  0  0  0  0  0  0  0  0  0  0  0
    1.2760    0.0000    0.0000 N   0  0  0  0  0  0  0  0  0  0  0  0
    0.3943   -1.2135    0.0000 N   0  0  0  0  0  0  0  0  0  0  0  0
   -1.0323   -0.7500    0.0000 N   0  0  0  0  0  0  0  0  0  0  0  0
   -1.0323    0.7500    0.0000 N   0  0  0  0  0  0  0  0  0  0  0  0
   -2.4231    1.3119    0.0000 C   0  0  0  0  0  0  0  0  0  0  0  0
   -3.8248    0.7779    0.0000 C   0  0  0  0  0  0  0  0  0  0  0  0
   -5.1163    1.5408    0.0000 C   0  0  0  0  0  0  0  0  0  0  0  0
   -5.3250    3.0262    0.0000 C   0  0  0  0  0  0  0  0  0  0  0  0
   -6.7539    3.4826    0.0000 C   0  0  0  0  0  0  0  0  0  0  0  0
   -7.0731    4.9482    0.0000 C   0  0  0  0  0  0  0  0  0  0  0  0
   -8.5020    5.4046    0.0000 C   0  0  0  0  0  0  0  0  0  0  0  0
   -9.6117    4.3954    0.0000 C   0  0  0  0  0  0  0  0  0  0  0  0
   -9.2925    2.9297    0.0000 C   0  0  0  0  0  0  0  0  0  0  0  0
   -7.8636    2.4733    0.0000 C   0  0  0  0  0  0  0  0  0  0  0  0
   -4.2938    4.1155    0.0000 C   0  0  0  0  0  0  0  0  0  0  0  0
   -2.8154    4.1036    0.0000 C   0  0  0  0  0  0  0  0  0  0  0  0
   -3.1273    2.6363    0.0000 C   0  0  0  0  0  0  0  0  0  0  0  0
   -4.6127    2.4276    0.0000 O   0  0  0  0  0  0  0  0  0  0  0  0
    1.0348    6.3681    0.0000 C   0  0  0  0  0  0  0  0  0  0  0  0
    2.5348    6.3681    0.0000 C   0  0  0  0  0  0  0  0  0  0  0  0
  1  2  1  0
  2  3  2  0
  3  4  1  0
  4  5  2  0
  5  6  1  0
  6  7  2  0
  7  8  1  0
  8  9  2  0
  9 10  1  0
 10 11  1  0
 11 12  2  0
 12 13  1  0
 13 14  2  0
 14 15  1  0
 15 16  2  0
 15 17  1  0
 17 18  1  0
 18 19  2  0
 19 20  1  0
 20 21  2  0
 21 22  1  0
 22 23  1  0
 23 24  2  0
 24 25  1  0
 25 26  2  0
 26 27  1  0
 27 28  2  0
 14 29  1  0
 29 30  2  0
 30 31  1  0
 31 32  2  0
 32 33  1  0
 33 34  1  0
 34 35  2  0
 35 36  1  0
 36 37  2  0
 37 38  1  0
 38 39  2  0
 39 40  1  0
 40 41  2  0
 41 42  1  0
 42 43  2  0
 37 44  1  0
 44 45  2  0
 45 46  1  0
 46 47  2  0
  5 48  1  0
 48 49  2  0
 49  2  1  0
 10  6  1  0
 45 11  1  0
 22 18  1  0
 28 23  1  0
 33 29  1  0
 46 34  1  0
 43 38  1  0
M  END
>  <Title>  (104) 
idAADZgen7

$$$$

     RDKit          2D

 26 28  0  0  0  0  0  0  0  0999 V2000
    3.7500   -1.2990    0.0000 C   0  0  0  0  0  0  0  0  0  0  0  0
    3.0000    0.0000    0.0000 O   0  0  0  0  0  0  0  0  0  0  0  0
    1.5000    0.0000    0.0000 C   0  0  0  0  0  0  0  0  0  0  0  0
    0.7500   -1.2990    0.0000 C   0  0  0  0  0  0  0  0  0  0  0  0
   -0.7500   -1.2990    0.0000 C   0  0  0  0  0  0  0  0  0  0  0  0
   -1.5000    0.0000    0.0000 C   0  0  0  0  0  0  0  0  0  0  0  0
   -3.0000    0.0000    0.0000 C   0  0  0  0  0  0  0  0  0  0  0  0
   -3.7500   -1.2990    0.0000 O   0  0  0  0  0  0  0  0  0  0  0  0
   -3.7500    1.2990    0.0000 N   0  0  0  0  0  0  0  0  0  0  0  0
   -5.2500    1.2990    0.0000 C   0  0  0  0  0  0  0  0  0  0  0  0
   -6.1317    0.0855    0.0000 N   0  0  0  0  0  0  0  0  0  0  0  0
   -7.5583    0.5490    0.0000 C   0  0  0  0  0  0  0  0  0  0  0  0
   -7.5583    2.0490    0.0000 N   0  0  0  0  0  0  0  0  0  0  0  0
   -6.1317    2.5126    0.0000 N   0  0  0  0  0  0  0  0  0  0  0  0
   -5.6682    3.9391    0.0000 C   0  0  0  0  0  0  0  0  0  0  0  0
   -4.2009    4.2510    0.0000 C   0  0  0  0  0  0  0  0  0  0  0  0
   -3.7374    5.6776    0.0000 C   0  0  0  0  0  0  0  0  0  0  0  0
   -4.7411    6.7923    0.0000 C   0  0  0  0  0  0  0  0  0  0  0  0
   -4.2776    8.2189    0.0000 C   0  0  0  0  0  0  0  0  0  0  0  0
   -5.2813    9.3336    0.0000 O   0  0  0  0  0  0  0  0  0  0  0  0
   -2.8104    8.5308    0.0000 N   0  0  0  0  0  0  0  0  0  0  0  0
   -2.3468    9.9574    0.0000 O   0  0  0  0  0  0  0  0  0  0  0  0
   -6.2083    6.4805    0.0000 C   0  0  0  0  0  0  0  0  0  0  0  0
   -6.6718    5.0539    0.0000 C   0  0  0  0  0  0  0  0  0  0  0  0
   -0.7500    1.2990    0.0000 C   0  0  0  0  0  0  0  0  0  0  0  0
    0.7500    1.2990    0.0000 C   0  0  0  0  0  0  0  0  0  0  0  0
  1  2  1  0
  2  3  1  0
  3  4  2  0
  4  5  1  0
  5  6  2  0
  6  7  1  0
  7  8  2  0
  7  9  1  0
  9 10  1  0
 10 11  2  0
 11 12  1  0
 12 13  2  0
 13 14  1  0
 14 15  1  0
 15 16  2  0
 16 17  1  0
 17 18  2  0
 18 19  1  0
 19 20  2  0
 19 21  1  0
 21 22  1  0
 18 23  1  0
 23 24  1  0
  6 25  1  0
 25 26  2  0
 26  3  1  0
 14 10  1  0
 24 15  1  0
M  END
>  <Title>  (105) 
idAAEAgen7

$$$$

     RDKit          2D

 31 35  0  0  0  0  0  0  0  0999 V2000
    3.0000    0.0000    0.0000 C   0  0  0  0  0  0  0  0  0  0  0  0
    1.5000    0.0000    0.0000 C   0  0  0  0  0  0  0  0  0  0  0  0
    0.7500    1.2990    0.0000 C   0  0  0  0  0  0  0  0  0  0  0  0
   -0.7500    1.2990    0.0000 C   0  0  0  0  0  0  0  0  0  0  0  0
   -1.5000    0.0000    0.0000 C   0  0  0  0  0  0  0  0  0  0  0  0
   -3.0000    0.0000    0.0000 C   0  0  0  0  0  0  0  0  0  0  0  0
   -3.8817   -1.2135    0.0000 N   0  0  0  0  0  0  0  0  0  0  0  0
   -5.3083   -0.7500    0.0000 N   0  0  0  0  0  0  0  0  0  0  0  0
   -5.3083    0.7500    0.0000 N   0  0  0  0  0  0  0  0  0  0  0  0
   -3.8817    1.2135    0.0000 N   0  0  0  0  0  0  0  0  0  0  0  0
   -3.4182    2.6401    0.0000 C   0  0  0  0  0  0  0  0  0  0  0  0
   -1.9509    2.9520    0.0000 C   0  0  0  0  0  0  0  0  0  0  0  0
   -1.4874    4.3786    0.0000 C   0  0  0  0  0  0  0  0  0  0  0  0
   -2.4911    5.4933    0.0000 C   0  0  0  0  0  0  0  0  0  0  0  0
   -2.0276    6.9199    0.0000 C   0  0  0  0  0  0  0  0  0  0  0  0
   -2.9093    8.1334    0.0000 N   0  0  0  0  0  0  0  0  0  0  0  0
   -2.0276    9.3469    0.0000 N   0  0  0  0  0  0  0  0  0  0  0  0
   -0.6010    8.8834    0.0000 N   0  0  0  0  0  0  0  0  0  0  0  0
   -0.6010    7.3834    0.0000 N   0  0  0  0  0  0  0  0  0  0  0  0
    0.6125    6.5017    0.0000 C   0  0  0  0  0  0  0  0  0  0  0  0
    0.4557    5.0099    0.0000 C   0  0  0  0  0  0  0  0  0  0  0  0
    1.6693    4.1283    0.0000 C   0  0  0  0  0  0  0  0  0  0  0  0
    3.0396    4.7384    0.0000 C   0  0  0  0  0  0  0  0  0  0  0  0
    3.1964    6.2301    0.0000 C   0  0  0  0  0  0  0  0  0  0  0  0
    1.9829    7.1118    0.0000 C   0  0  0  0  0  0  0  0  0  0  0  0
   -3.9583    5.1814    0.0000 C   0  0  0  0  0  0  0  0  0  0  0  0
   -4.9620    6.2961    0.0000 O   0  0  0  0  0  0  0  0  0  0  0  0
   -4.4218    3.7548    0.0000 N   0  0  0  0  0  0  0  0  0  0  0  0
   -0.7500   -1.2990    0.0000 C   0  0  0  0  0  0  0  0  0  0  0  0
   -1.5000   -2.5981    0.0000 O   0  0  0  0  0  0  0  0  0  0  0  0
    0.7500   -1.2990    0.0000 N   0  0  0  0  0  0  0  0  0  0  0  0
  1  2  1  0
  2  3  2  0
  3  4  1  0
  4  5  2  0
  5  6  1  0
  6  7  2  0
  7  8  1  0
  8  9  2  0
  9 10  1  0
 10 11  1  0
 11 12  2  0
 12 13  1  0
 13 14  2  0
 14 15  1  0
 15 16  2  0
 16 17  1  0
 17 18  2  0
 18 19  1  0
 19 20  1  0
 20 21  1  0
 21 22  1  0
 22 23  1  0
 23 24  1  0
 24 25  1  0
 14 26  1  0
 26 27  2  0
 26 28  1  0
  5 29  1  0
 29 30  2  0
 29 31  1  0
 31  2  1  0
 10  6  1  0
 28 11  1  0
 19 15  1  0
 25 20  1  0
M  END
>  <Title>  (106) 
idAAEBgen7

$$$$

     RDKit          2D

 39 44  0  0  0  0  0  0  0  0999 V2000
    3.0000    0.0000    0.0000 C   0  0  0  0  0  0  0  0  0  0  0  0
    1.5000    0.0000    0.0000 C   0  0  0  0  0  0  0  0  0  0  0  0
    0.7500    1.2990    0.0000 C   0  0  0  0  0  0  0  0  0  0  0  0
   -0.7500    1.2990    0.0000 C   0  0  0  0  0  0  0  0  0  0  0  0
   -1.5000    0.0000    0.0000 C   0  0  0  0  0  0  0  0  0  0  0  0
   -3.0000    0.0000    0.0000 C   0  0  0  0  0  0  0  0  0  0  0  0
   -3.8817   -1.2135    0.0000 N   0  0  0  0  0  0  0  0  0  0  0  0
   -5.3083   -0.7500    0.0000 N   0  0  0  0  0  0  0  0  0  0  0  0
   -5.3083    0.7500    0.0000 N   0  0  0  0  0  0  0  0  0  0  0  0
   -3.8817    1.2135    0.0000 N   0  0  0  0  0  0  0  0  0  0  0  0
   -3.4182    2.6401    0.0000 C   0  0  0  0  0  0  0  0  0  0  0  0
   -1.9509    2.9520    0.0000 C   0  0  0  0  0  0  0  0  0  0  0  0
   -1.4874    4.3786    0.0000 C   0  0  0  0  0  0  0  0  0  0  0  0
   -2.4911    5.4933    0.0000 C   0  0  0  0  0  0  0  0  0  0  0  0
   -2.0276    6.9199    0.0000 C   0  0  0  0  0  0  0  0  0  0  0  0
   -3.0313    8.0346    0.0000 O   0  0  0  0  0  0  0  0  0  0  0  0
   -0.5604    7.2317    0.0000 N   0  0  0  0  0  0  0  0  0  0  0  0
   -0.0968    8.6583    0.0000 C   0  0  0  0  0  0  0  0  0  0  0  0
   -0.9785    9.8718    0.0000 N   0  0  0  0  0  0  0  0  0  0  0  0
   -0.0968   11.0854    0.0000 N   0  0  0  0  0  0  0  0  0  0  0  0
    1.3298   10.6218    0.0000 N   0  0  0  0  0  0  0  0  0  0  0  0
    1.3298    9.1218    0.0000 N   0  0  0  0  0  0  0  0  0  0  0  0
    2.5433    8.2402    0.0000 C   0  0  0  0  0  0  0  0  0  0  0  0
    2.5433    6.7402    0.0000 N   0  0  0  0  0  0  0  0  0  0  0  0
    3.9699    6.2766    0.0000 N   0  0  0  0  0  0  0  0  0  0  0  0
    4.8515    7.4902    0.0000 N   0  0  0  0  0  0  0  0  0  0  0  0
    3.9699    8.7037    0.0000 N   0  0  0  0  0  0  0  0  0  0  0  0
    4.4334   10.1303    0.0000 C   0  0  0  0  0  0  0  0  0  0  0  0
    3.4297   11.2450    0.0000 C   0  0  0  0  0  0  0  0  0  0  0  0
    3.8932   12.6716    0.0000 C   0  0  0  0  0  0  0  0  0  0  0  0
    5.3604   12.9834    0.0000 C   0  0  0  0  0  0  0  0  0  0  0  0
    6.3641   11.8687    0.0000 C   0  0  0  0  0  0  0  0  0  0  0  0
    5.9006   10.4421    0.0000 C   0  0  0  0  0  0  0  0  0  0  0  0
   -3.9583    5.1814    0.0000 C   0  0  0  0  0  0  0  0  0  0  0  0
   -4.9620    6.2961    0.0000 O   0  0  0  0  0  0  0  0  0  0  0  0
   -4.4218    3.7548    0.0000 N   0  0  0  0  0  0  0  0  0  0  0  0
   -0.7500   -1.2990    0.0000 C   0  0  0  0  0  0  0  0  0  0  0  0
   -1.5000   -2.5981    0.0000 O   0  0  0  0  0  0  0  0  0  0  0  0
    0.7500   -1.2990    0.0000 O   0  0  0  0  0  0  0  0  0  0  0  0
  1  2  1  0
  2  3  2  0
  3  4  1  0
  4  5  2  0
  5  6  1  0
  6  7  2  0
  7  8  1  0
  8  9  2  0
  9 10  1  0
 10 11  1  0
 11 12  2  0
 12 13  1  0
 13 14  2  0
 14 15  1  0
 15 16  2  0
 15 17  1  0
 17 18  1  0
 18 19  2  0
 19 20  1  0
 20 21  2  0
 21 22  1  0
 22 23  1  0
 23 24  2  0
 24 25  1  0
 25 26  2  0
 26 27  1  0
 27 28  1  0
 28 29  2  0
 29 30  1  0
 30 31  2  0
 31 32  1  0
 32 33  2  0
 14 34  1  0
 34 35  2  0
 34 36  1  0
  5 37  1  0
 37 38  2  0
 37 39  1  0
 39  2  1  0
 10  6  1  0
 36 11  1  0
 22 18  1  0
 27 23  1  0
 33 28  1  0
M  END
>  <Title>  (107) 
idAAECgen7

$$$$

     RDKit          2D

 24 26  0  0  0  0  0  0  0  0999 V2000
    3.7500    1.2990    0.0000 C   0  0  0  0  0  0  0  0  0  0  0  0
    3.0000    0.0000    0.0000 O   0  0  0  0  0  0  0  0  0  0  0  0
    1.5000    0.0000    0.0000 C   0  0  0  0  0  0  0  0  0  0  0  0
    0.7500    1.2990    0.0000 C   0  0  0  0  0  0  0  0  0  0  0  0
   -0.7500    1.2990    0.0000 C   0  0  0  0  0  0  0  0  0  0  0  0
   -1.5000    0.0000    0.0000 C   0  0  0  0  0  0  0  0  0  0  0  0
   -3.0000    0.0000    0.0000 C   0  0  0  0  0  0  0  0  0  0  0  0
   -3.8817   -1.2135    0.0000 N   0  0  0  0  0  0  0  0  0  0  0  0
   -5.3083   -0.7500    0.0000 N   0  0  0  0  0  0  0  0  0  0  0  0
   -5.3083    0.7500    0.0000 N   0  0  0  0  0  0  0  0  0  0  0  0
   -3.8817    1.2135    0.0000 N   0  0  0  0  0  0  0  0  0  0  0  0
   -3.4182    2.6401    0.0000 C   0  0  0  0  0  0  0  0  0  0  0  0
   -1.9509    2.9520    0.0000 C   0  0  0  0  0  0  0  0  0  0  0  0
   -1.4874    4.3786    0.0000 C   0  0  0  0  0  0  0  0  0  0  0  0
   -2.4911    5.4933    0.0000 C   0  0  0  0  0  0  0  0  0  0  0  0
   -2.0276    6.9199    0.0000 C   0  0  0  0  0  0  0  0  0  0  0  0
   -3.0313    8.0346    0.0000 O   0  0  0  0  0  0  0  0  0  0  0  0
   -0.5604    7.2317    0.0000 N   0  0  0  0  0  0  0  0  0  0  0  0
   -0.0968    8.6583    0.0000 O   0  0  0  0  0  0  0  0  0  0  0  0
   -3.9583    5.1814    0.0000 C   0  0  0  0  0  0  0  0  0  0  0  0
   -4.4218    3.7548    0.0000 C   0  0  0  0  0  0  0  0  0  0  0  0
   -0.7500   -1.2990    0.0000 C   0  0  0  0  0  0  0  0  0  0  0  0
   -1.5000   -2.5981    0.0000 O   0  0  0  0  0  0  0  0  0  0  0  0
    0.7500   -1.2990    0.0000 N   0  0  0  0  0  0  0  0  0  0  0  0
  1  2  1  0
  2  3  1  0
  3  4  2  0
  4  5  1  0
  5  6  2  0
  6  7  1  0
  7  8  2  0
  8  9  1  0
  9 10  2  0
 10 11  1  0
 11 12  1  0
 12 13  2  0
 13 14  1  0
 14 15  2  0
 15 16  1  0
 16 17  2  0
 16 18  1  0
 18 19  1  0
 15 20  1  0
 20 21  1  0
  6 22  1  0
 22 23  2  0
 22 24  1  0
 24  3  1  0
 11  7  1  0
 21 12  1  0
M  END
>  <Title>  (108) 
idAAEDgen7

$$$$

     RDKit          2D

 20 22  0  0  0  0  0  0  0  0999 V2000
    3.0000    0.0000    0.0000 C   0  0  0  0  0  0  0  0  0  0  0  0
    1.5000    0.0000    0.0000 C   0  0  0  0  0  0  0  0  0  0  0  0
    0.7500   -1.2990    0.0000 C   0  0  0  0  0  0  0  0  0  0  0  0
   -0.7500   -1.2990    0.0000 C   0  0  0  0  0  0  0  0  0  0  0  0
   -1.5000    0.0000    0.0000 C   0  0  0  0  0  0  0  0  0  0  0  0
   -3.0000    0.0000    0.0000 N   0  0  0  0  0  0  0  0  0  0  0  0
   -3.7500    1.2990    0.0000 C   0  0  0  0  0  0  0  0  0  0  0  0
   -5.2500    1.2990    0.0000 C   0  0  0  0  0  0  0  0  0  0  0  0
   -6.0000    0.0000    0.0000 N   0  0  0  0  0  0  0  0  0  0  0  0
   -7.5000    0.0000    0.0000 C   0  0  0  0  0  0  0  0  0  0  0  0
   -8.2500    1.2990    0.0000 C   0  0  0  0  0  0  0  0  0  0  0  0
   -9.7500    1.2990    0.0000 C   0  0  0  0  0  0  0  0  0  0  0  0
  -10.5000    0.0000    0.0000 C   0  0  0  0  0  0  0  0  0  0  0  0
   -9.7500   -1.2990    0.0000 C   0  0  0  0  0  0  0  0  0  0  0  0
   -8.2500   -1.2990    0.0000 C   0  0  0  0  0  0  0  0  0  0  0  0
   -5.2500   -1.2990    0.0000 C   0  0  0  0  0  0  0  0  0  0  0  0
   -6.0000   -2.5981    0.0000 O   0  0  0  0  0  0  0  0  0  0  0  0
   -3.7500   -1.2990    0.0000 N   0  0  0  0  0  0  0  0  0  0  0  0
   -0.7500    1.2990    0.0000 N   0  0  0  0  0  0  0  0  0  0  0  0
    0.7500    1.2990    0.0000 C   0  0  0  0  0  0  0  0  0  0  0  0
  1  2  1  0
  2  3  2  0
  3  4  1  0
  4  5  2  0
  5  6  1  0
  6  7  1  0
  7  8  1  0
  8  9  1  0
  9 10  1  0
 10 11  2  0
 11 12  1  0
 12 13  2  0
 13 14  1  0
 14 15  2  0
  9 16  1  0
 16 17  2  0
 16 18  1  0
  5 19  1  0
 19 20  1  0
 20  2  1  0
 18  6  1  0
 15 10  1  0
M  END
>  <Title>  (109) 
idAAEEgen7

$$$$

     RDKit          2D

 36 39  0  0  0  0  0  0  0  0999 V2000
    6.6678   -0.9651    0.0000 C   0  0  0  0  0  0  0  0  0  0  0  0
    7.6165   -2.1270    0.0000 C   0  0  0  0  0  0  0  0  0  0  0  0
    8.9717   -1.4840    0.0000 C   0  0  0  0  0  0  0  0  0  0  0  0
   10.4704   -1.5444    0.0000 C   0  0  0  0  0  0  0  0  0  0  0  0
   11.7695   -2.2944    0.0000 C   0  0  0  0  0  0  0  0  0  0  0  0
   12.5712   -3.5621    0.0000 C   0  0  0  0  0  0  0  0  0  0  0  0
   12.6919   -5.0573    0.0000 C   0  0  0  0  0  0  0  0  0  0  0  0
   12.1039   -6.4372    0.0000 C   0  0  0  0  0  0  0  0  0  0  0  0
   10.9420   -7.3859    0.0000 C   0  0  0  0  0  0  0  0  0  0  0  0
    9.4723   -7.6859    0.0000 C   0  0  0  0  0  0  0  0  0  0  0  0
    8.0316   -7.2686    0.0000 C   0  0  0  0  0  0  0  0  0  0  0  0
    6.9497   -6.2295    0.0000 C   0  0  0  0  0  0  0  0  0  0  0  0
    6.4747   -4.8067    0.0000 C   0  0  0  0  0  0  0  0  0  0  0  0
    4.9796   -4.9274    0.0000 N   0  0  0  0  0  0  0  0  0  0  0  0
    4.3366   -6.2826    0.0000 N   0  0  0  0  0  0  0  0  0  0  0  0
    2.8414   -6.4033    0.0000 N   0  0  0  0  0  0  0  0  0  0  0  0
    2.1984   -7.7585    0.0000 C   0  0  0  0  0  0  0  0  0  0  0  0
    3.1404   -8.9258    0.0000 N   0  0  0  0  0  0  0  0  0  0  0  0
    2.8150  -10.3901    0.0000 N   0  0  0  0  0  0  0  0  0  0  0  0
    1.4673  -11.0487    0.0000 N   0  0  0  0  0  0  0  0  0  0  0  0
    0.1121  -10.4057    0.0000 N   0  0  0  0  0  0  0  0  0  0  0  0
   -0.2301   -8.9452    0.0000 N   0  0  0  0  0  0  0  0  0  0  0  0
    0.6984   -7.7671    0.0000 N   0  0  0  0  0  0  0  0  0  0  0  0
    0.0398   -6.4194    0.0000 C   0  0  0  0  0  0  0  0  0  0  0  0
   -1.4566   -6.3159    0.0000 C   0  0  0  0  0  0  0  0  0  0  0  0
   -2.1152   -4.9683    0.0000 C   0  0  0  0  0  0  0  0  0  0  0  0
   -1.2774   -3.7241    0.0000 C   0  0  0  0  0  0  0  0  0  0  0  0
   -1.9359   -2.3764    0.0000 C   0  0  0  0  0  0  0  0  0  0  0  0
   -3.4324   -2.2729    0.0000 C   0  0  0  0  0  0  0  0  0  0  0  0
   -4.0910   -0.9252    0.0000 C   0  0  0  0  0  0  0  0  0  0  0  0
   -3.2531    0.3190    0.0000 C   0  0  0  0  0  0  0  0  0  0  0  0
   -1.7567    0.2155    0.0000 C   0  0  0  0  0  0  0  0  0  0  0  0
   -1.0981   -1.1322    0.0000 C   0  0  0  0  0  0  0  0  0  0  0  0
    0.2191   -3.8275    0.0000 C   0  0  0  0  0  0  0  0  0  0  0  0
    0.8777   -5.1752    0.0000 C   0  0  0  0  0  0  0  0  0  0  0  0
    6.7154   -3.3262    0.0000 N   0  0  0  0  0  0  0  0  0  0  0  0
  1  2  1  0
  2  3  2  0
  3  4  1  0
  4  5  2  0
  5  6  1  0
  6  7  2  0
  7  8  1  0
  8  9  2  0
  9 10  1  0
 10 11  2  0
 11 12  1  0
 12 13  2  0
 13 14  1  0
 14 15  2  3
 15 16  1  0
 16 17  2  3
 17 18  1  0
 18 19  1  0
 19 20  1  0
 20 21  1  0
 21 22  1  0
 22 23  1  0
 23 24  1  0
 24 25  2  0
 25 26  1  0
 26 27  2  0
 27 28  1  0
 28 29  2  0
 29 30  1  0
 30 31  2  0
 31 32  1  0
 32 33  2  0
 27 34  1  0
 34 35  2  0
 13 36  1  0
 36  2  1  0
 23 17  1  0
 35 24  1  0
 33 28  1  0
M  END
>  <Title>  (110) 
idAAEFgen7

$$$$

     RDKit          2D

 11 11  0  0  0  0  0  0  0  0999 V2000
    5.7098   -1.2990    0.0000 C   0  0  0  0  0  0  0  0  0  0  0  0
    4.2098   -1.2990    0.0000 C   0  0  0  0  0  0  0  0  0  0  0  0
    3.4598   -0.0000    0.0000 C   0  0  0  0  0  0  0  0  0  0  0  0
    1.9598    0.0000    0.0000 C   0  0  0  0  0  0  0  0  0  0  0  0
    1.3858   -1.3858    0.0000 C   0  0  0  0  0  0  0  0  0  0  0  0
   -0.0000   -1.9598    0.0000 C   0  0  0  0  0  0  0  0  0  0  0  0
   -1.3858   -1.3858    0.0000 C   0  0  0  0  0  0  0  0  0  0  0  0
   -1.9598    0.0000    0.0000 C   0  0  0  0  0  0  0  0  0  0  0  0
   -1.3858    1.3858    0.0000 C   0  0  0  0  0  0  0  0  0  0  0  0
    0.0000    1.9598    0.0000 C   0  0  0  0  0  0  0  0  0  0  0  0
    1.3858    1.3858    0.0000 C   0  0  0  0  0  0  0  0  0  0  0  0
  1  2  1  0
  2  3  1  0
  3  4  1  0
  4  5  1  0
  5  6  1  0
  6  7  1  0
  7  8  1  0
  8  9  1  0
  9 10  1  0
 10 11  1  0
 11  4  1  0
M  END
>  <Title>  (111) 
idAAEGgen7

$$$$

     RDKit          2D

 26 28  0  0  0  0  0  0  0  0999 V2000
    3.7500   -1.2990    0.0000 C   0  0  0  0  0  0  0  0  0  0  0  0
    3.0000    0.0000    0.0000 O   0  0  0  0  0  0  0  0  0  0  0  0
    1.5000    0.0000    0.0000 C   0  0  0  0  0  0  0  0  0  0  0  0
    0.7500   -1.2990    0.0000 C   0  0  0  0  0  0  0  0  0  0  0  0
   -0.7500   -1.2990    0.0000 C   0  0  0  0  0  0  0  0  0  0  0  0
   -1.5000    0.0000    0.0000 C   0  0  0  0  0  0  0  0  0  0  0  0
   -3.0000    0.0000    0.0000 C   0  0  0  0  0  0  0  0  0  0  0  0
   -3.7500   -1.2990    0.0000 O   0  0  0  0  0  0  0  0  0  0  0  0
   -3.7500    1.2990    0.0000 N   0  0  0  0  0  0  0  0  0  0  0  0
   -5.2500    1.2990    0.0000 C   0  0  0  0  0  0  0  0  0  0  0  0
   -6.1317    0.0855    0.0000 N   0  0  0  0  0  0  0  0  0  0  0  0
   -7.5583    0.5490    0.0000 N   0  0  0  0  0  0  0  0  0  0  0  0
   -7.5583    2.0490    0.0000 N   0  0  0  0  0  0  0  0  0  0  0  0
   -6.1317    2.5126    0.0000 N   0  0  0  0  0  0  0  0  0  0  0  0
   -5.6682    3.9391    0.0000 C   0  0  0  0  0  0  0  0  0  0  0  0
   -4.2009    4.2510    0.0000 C   0  0  0  0  0  0  0  0  0  0  0  0
   -3.7374    5.6776    0.0000 C   0  0  0  0  0  0  0  0  0  0  0  0
   -4.7411    6.7923    0.0000 C   0  0  0  0  0  0  0  0  0  0  0  0
   -4.2776    8.2189    0.0000 C   0  0  0  0  0  0  0  0  0  0  0  0
   -5.2813    9.3336    0.0000 O   0  0  0  0  0  0  0  0  0  0  0  0
   -2.8104    8.5308    0.0000 N   0  0  0  0  0  0  0  0  0  0  0  0
   -2.3468    9.9574    0.0000 O   0  0  0  0  0  0  0  0  0  0  0  0
   -6.2083    6.4805    0.0000 C   0  0  0  0  0  0  0  0  0  0  0  0
   -6.6718    5.0539    0.0000 C   0  0  0  0  0  0  0  0  0  0  0  0
   -0.7500    1.2990    0.0000 C   0  0  0  0  0  0  0  0  0  0  0  0
    0.7500    1.2990    0.0000 C   0  0  0  0  0  0  0  0  0  0  0  0
  1  2  1  0
  2  3  1  0
  3  4  2  0
  4  5  1  0
  5  6  2  0
  6  7  1  0
  7  8  2  0
  7  9  1  0
  9 10  1  0
 10 11  2  0
 11 12  1  0
 12 13  2  0
 13 14  1  0
 14 15  1  0
 15 16  2  0
 16 17  1  0
 17 18  2  0
 18 19  1  0
 19 20  2  0
 19 21  1  0
 21 22  1  0
 18 23  1  0
 23 24  1  0
  6 25  1  0
 25 26  2  0
 26  3  1  0
 14 10  1  0
 24 15  1  0
M  END
>  <Title>  (112) 
idAAEHgen7

$$$$

     RDKit          2D

 26 29  0  0  0  0  0  0  0  0999 V2000
    4.6740   -4.8322    0.0000 C   0  0  0  0  0  0  0  0  0  0  0  0
    3.3037   -4.2221    0.0000 C   0  0  0  0  0  0  0  0  0  0  0  0
    2.0046   -4.9721    0.0000 C   0  0  0  0  0  0  0  0  0  0  0  0
    0.8899   -3.9684    0.0000 C   0  0  0  0  0  0  0  0  0  0  0  0
    1.5000   -2.5981    0.0000 C   0  0  0  0  0  0  0  0  0  0  0  0
    0.7500   -1.2990    0.0000 C   0  0  0  0  0  0  0  0  0  0  0  0
    1.5000    0.0000    0.0000 C   0  0  0  0  0  0  0  0  0  0  0  0
    0.7500    1.2990    0.0000 C   0  0  0  0  0  0  0  0  0  0  0  0
   -0.7500    1.2990    0.0000 C   0  0  0  0  0  0  0  0  0  0  0  0
   -1.5000    0.0000    0.0000 C   0  0  0  0  0  0  0  0  0  0  0  0
   -0.7500   -1.2990    0.0000 C   0  0  0  0  0  0  0  0  0  0  0  0
   -1.5000   -2.5981    0.0000 N   0  0  0  0  0  0  0  0  0  0  0  0
   -0.8899   -3.9684    0.0000 N   0  0  0  0  0  0  0  0  0  0  0  0
   -2.0046   -4.9721    0.0000 N   0  0  0  0  0  0  0  0  0  0  0  0
   -3.3037   -4.2221    0.0000 N   0  0  0  0  0  0  0  0  0  0  0  0
   -2.9918   -2.7549    0.0000 C   0  0  0  0  0  0  0  0  0  0  0  0
   -3.9955   -1.6402    0.0000 C   0  0  0  0  0  0  0  0  0  0  0  0
   -3.5320   -0.2136    0.0000 C   0  0  0  0  0  0  0  0  0  0  0  0
   -4.5356    0.9012    0.0000 C   0  0  0  0  0  0  0  0  0  0  0  0
   -6.0029    0.5893    0.0000 C   0  0  0  0  0  0  0  0  0  0  0  0
   -7.0066    1.7040    0.0000 C   0  0  0  0  0  0  0  0  0  0  0  0
   -6.4664   -0.8373    0.0000 N   0  0  0  0  0  0  0  0  0  0  0  0
   -5.4627   -1.9520    0.0000 C   0  0  0  0  0  0  0  0  0  0  0  0
   -5.9262   -3.3786    0.0000 O   0  0  0  0  0  0  0  0  0  0  0  0
    2.9918   -2.7549    0.0000 C   0  0  0  0  0  0  0  0  0  0  0  0
    3.9955   -1.6402    0.0000 O   0  0  0  0  0  0  0  0  0  0  0  0
  1  2  1  0
  2  3  2  0
  3  4  1  0
  4  5  2  0
  5  6  1  0
  6  7  1  0
  7  8  1  0
  8  9  1  0
  9 10  1  0
 10 11  1  0
 11 12  1  0
 12 13  1  0
 13 14  2  0
 14 15  1  0
 15 16  2  0
 16 17  1  0
 17 18  2  0
 18 19  1  0
 19 20  2  0
 20 21  1  0
 20 22  1  0
 22 23  1  0
 23 24  2  0
  5 25  1  0
 25 26  2  0
 25  2  1  0
 11  6  1  0
 16 12  1  0
 23 17  1  0
M  END
>  <Title>  (113) 
idAAEIgen7

$$$$

     RDKit          2D

 37 42  0  0  0  0  0  0  0  0999 V2000
    3.0000    0.0000    0.0000 C   0  0  0  0  0  0  0  0  0  0  0  0
    1.5000    0.0000    0.0000 C   0  0  0  0  0  0  0  0  0  0  0  0
    0.7500   -1.2990    0.0000 C   0  0  0  0  0  0  0  0  0  0  0  0
   -0.7500   -1.2990    0.0000 C   0  0  0  0  0  0  0  0  0  0  0  0
   -1.5000    0.0000    0.0000 C   0  0  0  0  0  0  0  0  0  0  0  0
   -3.0000    0.0000    0.0000 C   0  0  0  0  0  0  0  0  0  0  0  0
   -3.8817   -1.2135    0.0000 N   0  0  0  0  0  0  0  0  0  0  0  0
   -5.3083   -0.7500    0.0000 N   0  0  0  0  0  0  0  0  0  0  0  0
   -5.3083    0.7500    0.0000 N   0  0  0  0  0  0  0  0  0  0  0  0
   -3.8817    1.2135    0.0000 N   0  0  0  0  0  0  0  0  0  0  0  0
   -3.4182    2.6401    0.0000 C   0  0  0  0  0  0  0  0  0  0  0  0
   -1.9509    2.9520    0.0000 C   0  0  0  0  0  0  0  0  0  0  0  0
   -1.4874    4.3786    0.0000 C   0  0  0  0  0  0  0  0  0  0  0  0
   -2.4911    5.4933    0.0000 C   0  0  0  0  0  0  0  0  0  0  0  0
   -2.0276    6.9199    0.0000 C   0  0  0  0  0  0  0  0  0  0  0  0
   -0.5604    7.2317    0.0000 C   0  0  0  0  0  0  0  0  0  0  0  0
   -0.0968    8.6583    0.0000 C   0  0  0  0  0  0  0  0  0  0  0  0
   -1.1005    9.7730    0.0000 C   0  0  0  0  0  0  0  0  0  0  0  0
   -2.5677    9.4612    0.0000 C   0  0  0  0  0  0  0  0  0  0  0  0
   -3.0313    8.0346    0.0000 C   0  0  0  0  0  0  0  0  0  0  0  0
   -3.9583    5.1814    0.0000 C   0  0  0  0  0  0  0  0  0  0  0  0
   -4.4218    3.7548    0.0000 C   0  0  0  0  0  0  0  0  0  0  0  0
   -5.8891    3.4430    0.0000 N   0  0  0  0  0  0  0  0  0  0  0  0
   -6.4992    2.0726    0.0000 N   0  0  0  0  0  0  0  0  0  0  0  0
   -7.9910    2.2294    0.0000 N   0  0  0  0  0  0  0  0  0  0  0  0
   -8.3028    3.6967    0.0000 N   0  0  0  0  0  0  0  0  0  0  0  0
   -7.0038    4.4467    0.0000 C   0  0  0  0  0  0  0  0  0  0  0  0
   -6.8470    5.9384    0.0000 C   0  0  0  0  0  0  0  0  0  0  0  0
   -5.4767    6.5485    0.0000 C   0  0  0  0  0  0  0  0  0  0  0  0
   -5.3199    8.0403    0.0000 C   0  0  0  0  0  0  0  0  0  0  0  0
   -6.5334    8.9220    0.0000 C   0  0  0  0  0  0  0  0  0  0  0  0
   -6.3766   10.4138    0.0000 C   0  0  0  0  0  0  0  0  0  0  0  0
   -7.9037    8.3119    0.0000 C   0  0  0  0  0  0  0  0  0  0  0  0
   -9.1173    9.1936    0.0000 O   0  0  0  0  0  0  0  0  0  0  0  0
   -8.0605    6.8201    0.0000 N   0  0  0  0  0  0  0  0  0  0  0  0
   -0.7500    1.2990    0.0000 C   0  0  0  0  0  0  0  0  0  0  0  0
    0.7500    1.2990    0.0000 C   0  0  0  0  0  0  0  0  0  0  0  0
  1  2  1  0
  2  3  2  0
  3  4  1  0
  4  5  2  0
  5  6  1  0
  6  7  2  0
  7  8  1  0
  8  9  2  0
  9 10  1  0
 10 11  1  0
 11 12  2  0
 12 13  1  0
 13 14  2  0
 14 15  1  0
 15 16  2  0
 16 17  1  0
 17 18  2  0
 18 19  1  0
 19 20  2  0
 14 21  1  0
 21 22  2  0
 22 23  1  0
 23 24  1  0
 24 25  2  0
 25 26  1  0
 26 27  2  0
 27 28  1  0
 28 29  2  0
 29 30  1  0
 30 31  2  0
 31 32  1  0
 31 33  1  0
 33 34  2  0
 33 35  1  0
  5 36  1  0
 36 37  2  0
 37  2  1  0
 10  6  1  0
 22 11  1  0
 27 23  1  0
 35 28  1  0
 20 15  1  0
M  END
>  <Title>  (114) 
idAAEJgen7

$$$$

     RDKit          2D

 26 29  0  0  0  0  0  0  0  0999 V2000
    3.7500    1.2990    0.0000 C   0  0  0  0  0  0  0  0  0  0  0  0
    3.0000    0.0000    0.0000 O   0  0  0  0  0  0  0  0  0  0  0  0
    1.5000    0.0000    0.0000 C   0  0  0  0  0  0  0  0  0  0  0  0
    0.7500    1.2990    0.0000 C   0  0  0  0  0  0  0  0  0  0  0  0
   -0.7500    1.2990    0.0000 C   0  0  0  0  0  0  0  0  0  0  0  0
   -1.5000    0.0000    0.0000 C   0  0  0  0  0  0  0  0  0  0  0  0
   -3.0000    0.0000    0.0000 C   0  0  0  0  0  0  0  0  0  0  0  0
   -3.8817   -1.2135    0.0000 N   0  0  0  0  0  0  0  0  0  0  0  0
   -5.3083   -0.7500    0.0000 N   0  0  0  0  0  0  0  0  0  0  0  0
   -5.3083    0.7500    0.0000 N   0  0  0  0  0  0  0  0  0  0  0  0
   -3.8817    1.2135    0.0000 N   0  0  0  0  0  0  0  0  0  0  0  0
   -3.4182    2.6401    0.0000 C   0  0  0  0  0  0  0  0  0  0  0  0
   -4.2998    3.8536    0.0000 C   0  0  0  0  0  0  0  0  0  0  0  0
   -3.4182    5.0672    0.0000 C   0  0  0  0  0  0  0  0  0  0  0  0
   -1.9916    4.6036    0.0000 C   0  0  0  0  0  0  0  0  0  0  0  0
   -0.7780    5.4853    0.0000 C   0  0  0  0  0  0  0  0  0  0  0  0
    0.5923    4.8752    0.0000 C   0  0  0  0  0  0  0  0  0  0  0  0
    1.8058    5.7569    0.0000 C   0  0  0  0  0  0  0  0  0  0  0  0
    1.6490    7.2487    0.0000 C   0  0  0  0  0  0  0  0  0  0  0  0
    0.2787    7.8588    0.0000 C   0  0  0  0  0  0  0  0  0  0  0  0
   -0.9348    6.9771    0.0000 C   0  0  0  0  0  0  0  0  0  0  0  0
   -1.9916    3.1036    0.0000 C   0  0  0  0  0  0  0  0  0  0  0  0
   -0.7780    2.2220    0.0000 O   0  0  0  0  0  0  0  0  0  0  0  0
   -0.7500   -1.2990    0.0000 C   0  0  0  0  0  0  0  0  0  0  0  0
   -1.5000   -2.5981    0.0000 O   0  0  0  0  0  0  0  0  0  0  0  0
    0.7500   -1.2990    0.0000 N   0  0  0  0  0  0  0  0  0  0  0  0
  1  2  1  0
  2  3  1  0
  3  4  2  0
  4  5  1  0
  5  6  2  0
  6  7  1  0
  7  8  2  0
  8  9  1  0
  9 10  2  0
 10 11  1  0
 11 12  1  0
 12 13  2  0
 13 14  1  0
 14 15  2  0
 15 16  1  0
 16 17  2  0
 17 18  1  0
 18 19  2  0
 19 20  1  0
 20 21  2  0
 15 22  1  0
 22 23  2  0
  6 24  1  0
 24 25  2  0
 24 26  1  0
 26  3  1  0
 11  7  1  0
 22 12  1  0
 21 16  1  0
M  END
>  <Title>  (115) 
idAAEKgen7

$$$$

     RDKit          2D

 17 17  0  0  0  0  0  0  0  0999 V2000
    5.1073    0.0000    0.0000 C   0  0  0  0  0  0  0  0  0  0  0  0
    3.6073    0.0000    0.0000 C   0  0  0  0  0  0  0  0  0  0  0  0
    3.2954    1.4672    0.0000 C   0  0  0  0  0  0  0  0  0  0  0  0
    2.4138    2.6807    0.0000 C   0  0  0  0  0  0  0  0  0  0  0  0
    1.1147    3.4307    0.0000 C   0  0  0  0  0  0  0  0  0  0  0  0
   -0.3771    3.5875    0.0000 C   0  0  0  0  0  0  0  0  0  0  0  0
   -1.8037    3.1240    0.0000 C   0  0  0  0  0  0  0  0  0  0  0  0
   -2.9184    2.1203    0.0000 C   0  0  0  0  0  0  0  0  0  0  0  0
   -3.5285    0.7500    0.0000 C   0  0  0  0  0  0  0  0  0  0  0  0
   -3.5285   -0.7500    0.0000 C   0  0  0  0  0  0  0  0  0  0  0  0
   -2.9184   -2.1203    0.0000 C   0  0  0  0  0  0  0  0  0  0  0  0
   -1.8037   -3.1240    0.0000 C   0  0  0  0  0  0  0  0  0  0  0  0
   -0.3771   -3.5875    0.0000 C   0  0  0  0  0  0  0  0  0  0  0  0
    1.1147   -3.4307    0.0000 C   0  0  0  0  0  0  0  0  0  0  0  0
    2.4138   -2.6807    0.0000 C   0  0  0  0  0  0  0  0  0  0  0  0
    3.4175   -3.7955    0.0000 C   0  0  0  0  0  0  0  0  0  0  0  0
    3.2954   -1.4672    0.0000 N   0  0  0  0  0  0  0  0  0  0  0  0
  1  2  1  0
  2  3  2  0
  3  4  1  0
  4  5  2  0
  5  6  1  0
  6  7  2  0
  7  8  1  0
  8  9  2  0
  9 10  1  0
 10 11  2  0
 11 12  1  0
 12 13  2  0
 13 14  1  0
 14 15  2  0
 15 16  1  0
 15 17  1  0
 17  2  1  0
M  END
>  <Title>  (116) 
idAAELgen7

$$$$

     RDKit          2D

 58 66  0  0  0  0  0  0  0  0999 V2000
    7.5646   -0.1148    0.0000 C   0  0  0  0  0  0  0  0  0  0  0  0
    6.0974   -0.4266    0.0000 C   0  0  0  0  0  0  0  0  0  0  0  0
    4.9826    0.5771    0.0000 C   0  0  0  0  0  0  0  0  0  0  0  0
    3.6836   -0.1729    0.0000 C   0  0  0  0  0  0  0  0  0  0  0  0
    3.9955   -1.6402    0.0000 C   0  0  0  0  0  0  0  0  0  0  0  0
    2.9918   -2.7549    0.0000 C   0  0  0  0  0  0  0  0  0  0  0  0
    3.3037   -4.2221    0.0000 N   0  0  0  0  0  0  0  0  0  0  0  0
    2.0046   -4.9721    0.0000 N   0  0  0  0  0  0  0  0  0  0  0  0
    0.8899   -3.9684    0.0000 N   0  0  0  0  0  0  0  0  0  0  0  0
    1.5000   -2.5981    0.0000 N   0  0  0  0  0  0  0  0  0  0  0  0
    0.7500   -1.2990    0.0000 C   0  0  0  0  0  0  0  0  0  0  0  0
    1.5000    0.0000    0.0000 C   0  0  0  0  0  0  0  0  0  0  0  0
    0.7500    1.2990    0.0000 C   0  0  0  0  0  0  0  0  0  0  0  0
   -0.7500    1.2990    0.0000 C   0  0  0  0  0  0  0  0  0  0  0  0
   -1.5000    2.5981    0.0000 C   0  0  0  0  0  0  0  0  0  0  0  0
   -3.0000    2.5981    0.0000 O   0  0  0  0  0  0  0  0  0  0  0  0
   -0.7500    3.8971    0.0000 N   0  0  0  0  0  0  0  0  0  0  0  0
   -1.5000    5.1962    0.0000 C   0  0  0  0  0  0  0  0  0  0  0  0
   -2.9918    5.3529    0.0000 N   0  0  0  0  0  0  0  0  0  0  0  0
   -3.3037    6.8202    0.0000 C   0  0  0  0  0  0  0  0  0  0  0  0
   -2.0046    7.5702    0.0000 N   0  0  0  0  0  0  0  0  0  0  0  0
   -0.8899    6.5665    0.0000 N   0  0  0  0  0  0  0  0  0  0  0  0
    0.5773    6.8783    0.0000 C   0  0  0  0  0  0  0  0  0  0  0  0
    1.5810    5.7636    0.0000 C   0  0  0  0  0  0  0  0  0  0  0  0
    3.0482    6.0755    0.0000 C   0  0  0  0  0  0  0  0  0  0  0  0
    3.5118    7.5021    0.0000 C   0  0  0  0  0  0  0  0  0  0  0  0
    2.5081    8.6168    0.0000 C   0  0  0  0  0  0  0  0  0  0  0  0
    1.0409    8.3049    0.0000 C   0  0  0  0  0  0  0  0  0  0  0  0
   -1.5000    0.0000    0.0000 C   0  0  0  0  0  0  0  0  0  0  0  0
   -0.7500   -1.2990    0.0000 C   0  0  0  0  0  0  0  0  0  0  0  0
   -1.5000   -2.5981    0.0000 C   0  0  0  0  0  0  0  0  0  0  0  0
   -0.7500   -3.8971    0.0000 C   0  0  0  0  0  0  0  0  0  0  0  0
   -1.5000   -5.1962    0.0000 C   0  0  0  0  0  0  0  0  0  0  0  0
   -3.0000   -5.1962    0.0000 C   0  0  0  0  0  0  0  0  0  0  0  0
   -3.7500   -6.4952    0.0000 C   0  0  0  0  0  0  0  0  0  0  0  0
   -5.2500   -6.4952    0.0000 O   0  0  0  0  0  0  0  0  0  0  0  0
   -3.0000   -7.7942    0.0000 N   0  0  0  0  0  0  0  0  0  0  0  0
   -3.7500   -9.0933    0.0000 C   0  0  0  0  0  0  0  0  0  0  0  0
   -3.0000  -10.3923    0.0000 C   0  0  0  0  0  0  0  0  0  0  0  0
   -3.7500  -11.6913    0.0000 C   0  0  0  0  0  0  0  0  0  0  0  0
   -5.2500  -11.6913    0.0000 C   0  0  0  0  0  0  0  0  0  0  0  0
   -6.0000  -10.3923    0.0000 C   0  0  0  0  0  0  0  0  0  0  0  0
   -5.2500   -9.0933    0.0000 C   0  0  0  0  0  0  0  0  0  0  0  0
   -3.7500   -3.8971    0.0000 C   0  0  0  0  0  0  0  0  0  0  0  0
   -3.0000   -2.5981    0.0000 C   0  0  0  0  0  0  0  0  0  0  0  0
   -3.7500   -1.2990    0.0000 C   0  0  0  0  0  0  0  0  0  0  0  0
   -5.2500   -1.2990    0.0000 C   0  0  0  0  0  0  0  0  0  0  0  0
   -6.0000    0.0000    0.0000 C   0  0  0  0  0  0  0  0  0  0  0  0
   -5.2500    1.2990    0.0000 C   0  0  0  0  0  0  0  0  0  0  0  0
   -6.0000    2.5981    0.0000 C   0  0  0  0  0  0  0  0  0  0  0  0
   -7.5000    2.5981    0.0000 C   0  0  0  0  0  0  0  0  0  0  0  0
   -8.2500    3.8971    0.0000 C   0  0  0  0  0  0  0  0  0  0  0  0
   -7.5000    5.1962    0.0000 C   0  0  0  0  0  0  0  0  0  0  0  0
   -6.0000    5.1962    0.0000 C   0  0  0  0  0  0  0  0  0  0  0  0
   -5.2500    3.8971    0.0000 C   0  0  0  0  0  0  0  0  0  0  0  0
   -3.7500    1.2990    0.0000 C   0  0  0  0  0  0  0  0  0  0  0  0
   -3.0000    0.0000    0.0000 C   0  0  0  0  0  0  0  0  0  0  0  0
    5.4873   -1.7969    0.0000 N   0  0  0  0  0  0  0  0  0  0  0  0
  1  2  1  0
  2  3  2  0
  3  4  1  0
  4  5  2  0
  5  6  1  0
  6  7  2  0
  7  8  1  0
  8  9  2  0
  9 10  1  0
 10 11  1  0
 11 12  2  0
 12 13  1  0
 13 14  2  0
 14 15  1  0
 15 16  2  0
 15 17  1  0
 17 18  1  0
 18 19  2  0
 19 20  1  0
 20 21  2  0
 21 22  1  0
 22 23  1  0
 23 24  2  0
 24 25  1  0
 25 26  2  0
 26 27  1  0
 27 28  2  0
 14 29  1  0
 29 30  2  0
 30 31  1  0
 31 32  2  0
 32 33  1  0
 33 34  2  0
 34 35  1  0
 35 36  2  0
 35 37  1  0
 37 38  1  0
 38 39  2  0
 39 40  1  0
 40 41  2  0
 41 42  1  0
 42 43  2  0
 34 44  1  0
 44 45  2  0
 45 46  1  0
 46 47  2  0
 47 48  1  0
 48 49  2  0
 49 50  1  0
 50 51  2  0
 51 52  1  0
 52 53  2  0
 53 54  1  0
 54 55  2  0
 49 56  1  0
 56 57  1  0
  5 58  1  0
 58  2  1  0
 10  6  1  0
 30 11  1  0
 45 31  1  0
 57 46  1  0
 22 18  1  0
 28 23  1  0
 43 38  1  0
 55 50  1  0
M  END
>  <Title>  (117) 
idAAEMgen7

$$$$

     RDKit          2D

 52 59  0  0  0  0  0  0  0  0999 V2000
   -8.5977  -14.4210    0.0000 C   0  0  0  0  0  0  0  0  0  0  0  0
   -7.2069  -13.8591    0.0000 C   0  0  0  0  0  0  0  0  0  0  0  0
   -6.0249  -14.7826    0.0000 C   0  0  0  0  0  0  0  0  0  0  0  0
   -4.6341  -14.2207    0.0000 C   0  0  0  0  0  0  0  0  0  0  0  0
   -4.4254  -12.7353    0.0000 C   0  0  0  0  0  0  0  0  0  0  0  0
   -3.0346  -12.1734    0.0000 C   0  0  0  0  0  0  0  0  0  0  0  0
   -1.8526  -13.0969    0.0000 O   0  0  0  0  0  0  0  0  0  0  0  0
   -2.8258  -10.6880    0.0000 N   0  0  0  0  0  0  0  0  0  0  0  0
   -1.4350  -10.1261    0.0000 C   0  0  0  0  0  0  0  0  0  0  0  0
   -0.1630  -10.9210    0.0000 N   0  0  0  0  0  0  0  0  0  0  0  0
    0.9861   -9.9568    0.0000 N   0  0  0  0  0  0  0  0  0  0  0  0
    0.4242   -8.5660    0.0000 N   0  0  0  0  0  0  0  0  0  0  0  0
   -1.0722   -8.6706    0.0000 N   0  0  0  0  0  0  0  0  0  0  0  0
   -2.0363   -7.5216    0.0000 C   0  0  0  0  0  0  0  0  0  0  0  0
   -1.6735   -6.0661    0.0000 C   0  0  0  0  0  0  0  0  0  0  0  0
   -2.9455   -5.2712    0.0000 C   0  0  0  0  0  0  0  0  0  0  0  0
   -4.0946   -6.2354    0.0000 C   0  0  0  0  0  0  0  0  0  0  0  0
   -5.5500   -5.8725    0.0000 C   0  0  0  0  0  0  0  0  0  0  0  0
   -6.6991   -6.8367    0.0000 N   0  0  0  0  0  0  0  0  0  0  0  0
   -7.9712   -6.0419    0.0000 N   0  0  0  0  0  0  0  0  0  0  0  0
   -7.6083   -4.5864    0.0000 N   0  0  0  0  0  0  0  0  0  0  0  0
   -6.1120   -4.4818    0.0000 N   0  0  0  0  0  0  0  0  0  0  0  0
   -5.3171   -3.2097    0.0000 C   0  0  0  0  0  0  0  0  0  0  0  0
   -6.2406   -2.0277    0.0000 C   0  0  0  0  0  0  0  0  0  0  0  0
   -6.1882   -0.5286    0.0000 C   0  0  0  0  0  0  0  0  0  0  0  0
   -5.1845    0.5861    0.0000 C   0  0  0  0  0  0  0  0  0  0  0  0
   -6.5089    1.2903    0.0000 C   0  0  0  0  0  0  0  0  0  0  0  0
   -7.1665    2.6385    0.0000 C   0  0  0  0  0  0  0  0  0  0  0  0
   -8.6519    2.4298    0.0000 C   0  0  0  0  0  0  0  0  0  0  0  0
   -9.2138    1.0390    0.0000 C   0  0  0  0  0  0  0  0  0  0  0  0
  -10.6992    0.8302    0.0000 C   0  0  0  0  0  0  0  0  0  0  0  0
  -11.6227    2.0122    0.0000 C   0  0  0  0  0  0  0  0  0  0  0  0
  -13.1081    1.8035    0.0000 C   0  0  0  0  0  0  0  0  0  0  0  0
  -11.0608    3.4030    0.0000 C   0  0  0  0  0  0  0  0  0  0  0  0
  -11.9843    4.5850    0.0000 O   0  0  0  0  0  0  0  0  0  0  0  0
   -9.5754    3.6118    0.0000 N   0  0  0  0  0  0  0  0  0  0  0  0
   -6.9060    4.1157    0.0000 C   0  0  0  0  0  0  0  0  0  0  0  0
   -5.8270    5.1577    0.0000 C   0  0  0  0  0  0  0  0  0  0  0  0
   -4.3416    5.3665    0.0000 C   0  0  0  0  0  0  0  0  0  0  0  0
   -3.0172    4.6623    0.0000 C   0  0  0  0  0  0  0  0  0  0  0  0
   -2.3596    3.3141    0.0000 C   0  0  0  0  0  0  0  0  0  0  0  0
   -2.6201    1.8369    0.0000 C   0  0  0  0  0  0  0  0  0  0  0  0
   -3.6991    0.7949    0.0000 C   0  0  0  0  0  0  0  0  0  0  0  0
   -2.4271    0.0000    0.0000 N   0  0  0  0  0  0  0  0  0  0  0  0
   -1.9635   -1.4266    0.0000 N   0  0  0  0  0  0  0  0  0  0  0  0
   -2.5254   -2.8174    0.0000 N   0  0  0  0  0  0  0  0  0  0  0  0
   -3.8499   -3.5216    0.0000 N   0  0  0  0  0  0  0  0  0  0  0  0
   -3.5327   -7.6262    0.0000 C   0  0  0  0  0  0  0  0  0  0  0  0
   -4.3276   -8.8983    0.0000 O   0  0  0  0  0  0  0  0  0  0  0  0
   -5.6074  -11.8118    0.0000 N   0  0  0  0  0  0  0  0  0  0  0  0
   -6.9982  -12.3737    0.0000 C   0  0  0  0  0  0  0  0  0  0  0  0
   -8.1802  -11.4502    0.0000 O   0  0  0  0  0  0  0  0  0  0  0  0
  1  2  1  0
  2  3  2  0
  3  4  1  0
  4  5  2  0
  5  6  1  0
  6  7  2  0
  6  8  1  0
  8  9  1  0
  9 10  2  0
 10 11  1  0
 11 12  2  0
 12 13  1  0
 13 14  1  0
 14 15  2  0
 15 16  1  0
 16 17  2  0
 17 18  1  0
 18 19  2  0
 19 20  1  0
 20 21  2  0
 21 22  1  0
 22 23  1  0
 23 24  2  0
 24 25  1  0
 25 26  2  0
 26 27  1  0
 27 28  2  0
 28 29  1  0
 29 30  2  0
 30 31  1  0
 31 32  2  0
 32 33  1  0
 32 34  1  0
 34 35  2  0
 34 36  1  0
 28 37  1  0
 37 38  2  0
 38 39  1  0
 39 40  2  0
 40 41  1  0
 41 42  2  0
 42 43  1  0
 43 44  2  0
 44 45  1  0
 45 46  2  0
 46 47  1  0
 17 48  1  0
 48 49  2  0
  5 50  1  0
 50 51  1  0
 51 52  2  0
 51  2  1  0
 13  9  1  0
 48 14  1  0
 22 18  1  0
 47 23  1  0
 43 26  1  0
 36 29  1  0
 47 37  1  0
M  END
>  <Title>  (118) 
idAAENgen7

$$$$

     RDKit          2D

 20 22  0  0  0  0  0  0  0  0999 V2000
    3.0000    0.0000    0.0000 C   0  0  0  0  0  0  0  0  0  0  0  0
    1.5000    0.0000    0.0000 C   0  0  0  0  0  0  0  0  0  0  0  0
    0.7500   -1.2990    0.0000 C   0  0  0  0  0  0  0  0  0  0  0  0
   -0.7500   -1.2990    0.0000 C   0  0  0  0  0  0  0  0  0  0  0  0
   -1.5000    0.0000    0.0000 C   0  0  0  0  0  0  0  0  0  0  0  0
   -3.0000    0.0000    0.0000 C   0  0  0  0  0  0  0  0  0  0  0  0
   -3.7500    1.2990    0.0000 C   0  0  0  0  0  0  0  0  0  0  0  0
   -5.2500    1.2990    0.0000 C   0  0  0  0  0  0  0  0  0  0  0  0
   -6.0000    0.0000    0.0000 C   0  0  0  0  0  0  0  0  0  0  0  0
   -7.5000    0.0000    0.0000 C   0  0  0  0  0  0  0  0  0  0  0  0
   -8.2500    1.2990    0.0000 C   0  0  0  0  0  0  0  0  0  0  0  0
   -9.7500    1.2990    0.0000 C   0  0  0  0  0  0  0  0  0  0  0  0
  -10.5000    0.0000    0.0000 C   0  0  0  0  0  0  0  0  0  0  0  0
   -9.7500   -1.2990    0.0000 C   0  0  0  0  0  0  0  0  0  0  0  0
   -8.2500   -1.2990    0.0000 C   0  0  0  0  0  0  0  0  0  0  0  0
   -5.2500   -1.2990    0.0000 C   0  0  0  0  0  0  0  0  0  0  0  0
   -6.0000   -2.5981    0.0000 O   0  0  0  0  0  0  0  0  0  0  0  0
   -3.7500   -1.2990    0.0000 N   0  0  0  0  0  0  0  0  0  0  0  0
   -0.7500    1.2990    0.0000 N   0  0  0  0  0  0  0  0  0  0  0  0
    0.7500    1.2990    0.0000 N   0  0  0  0  0  0  0  0  0  0  0  0
  1  2  1  0
  2  3  2  0
  3  4  1  0
  4  5  2  0
  5  6  1  0
  6  7  2  0
  7  8  1  0
  8  9  2  0
  9 10  1  0
 10 11  2  0
 11 12  1  0
 12 13  2  0
 13 14  1  0
 14 15  2  0
  9 16  1  0
 16 17  2  0
 16 18  1  0
  5 19  1  0
 19 20  1  0
 20  2  1  0
 18  6  1  0
 15 10  1  0
M  END
>  <Title>  (119) 
idAAEOgen7

$$$$

     RDKit          2D

 14 14  0  0  0  0  0  0  0  0999 V2000
    5.2500   -1.2990    0.0000 C   0  0  0  0  0  0  0  0  0  0  0  0
    3.7500   -1.2990    0.0000 C   0  0  0  0  0  0  0  0  0  0  0  0
    3.0000    0.0000    0.0000 C   0  0  0  0  0  0  0  0  0  0  0  0
    1.5000    0.0000    0.0000 C   0  0  0  0  0  0  0  0  0  0  0  0
    0.7500   -1.2990    0.0000 C   0  0  0  0  0  0  0  0  0  0  0  0
   -0.7500   -1.2990    0.0000 C   0  0  0  0  0  0  0  0  0  0  0  0
   -1.5000    0.0000    0.0000 C   0  0  0  0  0  0  0  0  0  0  0  0
   -0.7500    1.2990    0.0000 C   0  0  0  0  0  0  0  0  0  0  0  0
    0.7500    1.2990    0.0000 C   0  0  0  0  0  0  0  0  0  0  0  0
    3.0000   -2.5981    0.0000 C   0  0  0  0  0  0  0  0  0  0  0  0
    3.7500   -3.8971    0.0000 C   0  0  0  0  0  0  0  0  0  0  0  0
    2.4510   -4.6471    0.0000 C   0  0  0  0  0  0  0  0  0  0  0  0
    5.0490   -3.1471    0.0000 C   0  0  0  0  0  0  0  0  0  0  0  0
    4.5000   -5.1962    0.0000 C   0  0  0  0  0  0  0  0  0  0  0  0
  1  2  1  0
  2  3  1  0
  3  4  1  0
  4  5  1  0
  5  6  1  0
  6  7  1  0
  7  8  1  0
  8  9  1  0
  2 10  1  0
 10 11  1  0
 11 12  1  0
 11 13  1  0
 11 14  1  0
  9  4  1  0
M  END
>  <Title>  (120) 
idAAEPgen7

$$$$

     RDKit          2D

 35 38  0  0  0  0  0  0  0  0999 V2000
    3.0000    0.0000    0.0000 C   0  0  0  0  0  0  0  0  0  0  0  0
    1.5000    0.0000    0.0000 C   0  0  0  0  0  0  0  0  0  0  0  0
    0.7500   -1.2990    0.0000 C   0  0  0  0  0  0  0  0  0  0  0  0
   -0.7500   -1.2990    0.0000 C   0  0  0  0  0  0  0  0  0  0  0  0
   -1.5000   -2.5981    0.0000 C   0  0  0  0  0  0  0  0  0  0  0  0
   -0.7500   -3.8971    0.0000 O   0  0  0  0  0  0  0  0  0  0  0  0
   -3.0000   -2.5981    0.0000 N   0  0  0  0  0  0  0  0  0  0  0  0
   -3.7500   -3.8971    0.0000 C   0  0  0  0  0  0  0  0  0  0  0  0
   -5.2500   -3.8971    0.0000 C   0  0  0  0  0  0  0  0  0  0  0  0
   -6.0000   -5.1962    0.0000 C   0  0  0  0  0  0  0  0  0  0  0  0
   -5.2500   -6.4952    0.0000 C   0  0  0  0  0  0  0  0  0  0  0  0
   -6.0000   -7.7942    0.0000 C   0  0  0  0  0  0  0  0  0  0  0  0
   -5.2500   -9.0933    0.0000 O   0  0  0  0  0  0  0  0  0  0  0  0
   -7.5000   -7.7942    0.0000 N   0  0  0  0  0  0  0  0  0  0  0  0
   -8.2500   -9.0933    0.0000 C   0  0  0  0  0  0  0  0  0  0  0  0
   -7.6399  -10.4636    0.0000 N   0  0  0  0  0  0  0  0  0  0  0  0
   -8.7546  -11.4673    0.0000 N   0  0  0  0  0  0  0  0  0  0  0  0
  -10.0537  -10.7173    0.0000 N   0  0  0  0  0  0  0  0  0  0  0  0
   -9.7418   -9.2501    0.0000 N   0  0  0  0  0  0  0  0  0  0  0  0
  -10.7455   -8.1353    0.0000 C   0  0  0  0  0  0  0  0  0  0  0  0
  -10.2820   -6.7088    0.0000 C   0  0  0  0  0  0  0  0  0  0  0  0
  -11.2856   -5.5940    0.0000 C   0  0  0  0  0  0  0  0  0  0  0  0
  -12.7529   -5.9059    0.0000 C   0  0  0  0  0  0  0  0  0  0  0  0
  -13.2164   -7.3325    0.0000 C   0  0  0  0  0  0  0  0  0  0  0  0
  -12.2127   -8.4472    0.0000 C   0  0  0  0  0  0  0  0  0  0  0  0
   -3.7500   -6.4952    0.0000 C   0  0  0  0  0  0  0  0  0  0  0  0
   -3.0000   -7.7942    0.0000 O   0  0  0  0  0  0  0  0  0  0  0  0
   -3.0000   -5.1962    0.0000 N   0  0  0  0  0  0  0  0  0  0  0  0
   -1.5000    0.0000    0.0000 C   0  0  0  0  0  0  0  0  0  0  0  0
   -0.7500    1.2990    0.0000 C   0  0  0  0  0  0  0  0  0  0  0  0
    0.7500    1.2990    0.0000 C   0  0  0  0  0  0  0  0  0  0  0  0
    1.5000    2.5981    0.0000 C   0  0  0  0  0  0  0  0  0  0  0  0
    0.2010    3.3481    0.0000 C   0  0  0  0  0  0  0  0  0  0  0  0
    2.7990    1.8481    0.0000 C   0  0  0  0  0  0  0  0  0  0  0  0
    2.2500    3.8971    0.0000 C   0  0  0  0  0  0  0  0  0  0  0  0
  1  2  1  0
  2  3  2  0
  3  4  1  0
  4  5  1  0
  5  6  2  0
  5  7  1  0
  7  8  1  0
  8  9  2  0
  9 10  1  0
 10 11  2  0
 11 12  1  0
 12 13  2  0
 12 14  1  0
 14 15  1  0
 15 16  2  0
 16 17  1  0
 17 18  2  0
 18 19  1  0
 19 20  1  0
 20 21  2  0
 21 22  1  0
 22 23  2  0
 23 24  1  0
 24 25  2  0
 11 26  1  0
 26 27  2  0
 26 28  1  0
  4 29  2  0
 29 30  1  0
 30 31  2  0
 31 32  1  0
 32 33  1  0
 32 34  1  0
 32 35  1  0
 31  2  1  0
 28  8  1  0
 19 15  1  0
 25 20  1  0
M  END
>  <Title>  (121) 
idAAEQgen7

$$$$

     RDKit          2D

 31 35  0  0  0  0  0  0  0  0999 V2000
    3.7500   -1.2990    0.0000 C   0  0  0  0  0  0  0  0  0  0  0  0
    3.0000    0.0000    0.0000 O   0  0  0  0  0  0  0  0  0  0  0  0
    1.5000    0.0000    0.0000 C   0  0  0  0  0  0  0  0  0  0  0  0
    0.7500   -1.2990    0.0000 C   0  0  0  0  0  0  0  0  0  0  0  0
   -0.7500   -1.2990    0.0000 C   0  0  0  0  0  0  0  0  0  0  0  0
   -1.5000    0.0000    0.0000 C   0  0  0  0  0  0  0  0  0  0  0  0
   -3.0000    0.0000    0.0000 C   0  0  0  0  0  0  0  0  0  0  0  0
   -3.8817   -1.2135    0.0000 N   0  0  0  0  0  0  0  0  0  0  0  0
   -5.3083   -0.7500    0.0000 N   0  0  0  0  0  0  0  0  0  0  0  0
   -5.3083    0.7500    0.0000 N   0  0  0  0  0  0  0  0  0  0  0  0
   -3.8817    1.2135    0.0000 N   0  0  0  0  0  0  0  0  0  0  0  0
   -3.4182    2.6401    0.0000 C   0  0  0  0  0  0  0  0  0  0  0  0
   -1.9509    2.9520    0.0000 C   0  0  0  0  0  0  0  0  0  0  0  0
   -1.4874    4.3786    0.0000 C   0  0  0  0  0  0  0  0  0  0  0  0
   -2.4911    5.4933    0.0000 C   0  0  0  0  0  0  0  0  0  0  0  0
   -2.0276    6.9199    0.0000 C   0  0  0  0  0  0  0  0  0  0  0  0
   -0.5604    7.2317    0.0000 C   0  0  0  0  0  0  0  0  0  0  0  0
   -0.0968    8.6583    0.0000 C   0  0  0  0  0  0  0  0  0  0  0  0
   -1.1005    9.7730    0.0000 C   0  0  0  0  0  0  0  0  0  0  0  0
   -0.6370   11.1996    0.0000 C   0  0  0  0  0  0  0  0  0  0  0  0
    0.8302   11.5115    0.0000 C   0  0  0  0  0  0  0  0  0  0  0  0
    1.2937   12.9381    0.0000 C   0  0  0  0  0  0  0  0  0  0  0  0
    0.2901   14.0528    0.0000 C   0  0  0  0  0  0  0  0  0  0  0  0
   -1.1772   13.7409    0.0000 C   0  0  0  0  0  0  0  0  0  0  0  0
   -1.6407   12.3143    0.0000 C   0  0  0  0  0  0  0  0  0  0  0  0
   -2.5677    9.4612    0.0000 C   0  0  0  0  0  0  0  0  0  0  0  0
   -3.0313    8.0346    0.0000 C   0  0  0  0  0  0  0  0  0  0  0  0
   -3.9583    5.1814    0.0000 C   0  0  0  0  0  0  0  0  0  0  0  0
   -4.4218    3.7548    0.0000 C   0  0  0  0  0  0  0  0  0  0  0  0
   -0.7500    1.2990    0.0000 C   0  0  0  0  0  0  0  0  0  0  0  0
    0.7500    1.2990    0.0000 C   0  0  0  0  0  0  0  0  0  0  0  0
  1  2  1  0
  2  3  1  0
  3  4  2  0
  4  5  1  0
  5  6  2  0
  6  7  1  0
  7  8  2  0
  8  9  1  0
  9 10  2  0
 10 11  1  0
 11 12  1  0
 12 13  2  0
 13 14  1  0
 14 15  2  0
 15 16  1  0
 16 17  2  0
 17 18  1  0
 18 19  2  0
 19 20  1  0
 20 21  2  0
 21 22  1  0
 22 23  2  0
 23 24  1  0
 24 25  2  0
 19 26  1  0
 26 27  2  0
 15 28  1  0
 28 29  2  0
  6 30  1  0
 30 31  2  0
 31  3  1  0
 11  7  1  0
 29 12  1  0
 27 16  1  0
 25 20  1  0
M  END
>  <Title>  (122) 
idAAERgen7

$$$$

     RDKit          2D

 49 56  0  0  0  0  0  0  0  0999 V2000
    8.1048   -5.7068    0.0000 C   0  0  0  0  0  0  0  0  0  0  0  0
    8.5683   -4.2803    0.0000 O   0  0  0  0  0  0  0  0  0  0  0  0
    7.5646   -3.1655    0.0000 C   0  0  0  0  0  0  0  0  0  0  0  0
    7.8765   -1.6983    0.0000 C   0  0  0  0  0  0  0  0  0  0  0  0
    6.5774   -0.9483    0.0000 C   0  0  0  0  0  0  0  0  0  0  0  0
    5.4627   -1.9520    0.0000 C   0  0  0  0  0  0  0  0  0  0  0  0
    3.9955   -1.6402    0.0000 C   0  0  0  0  0  0  0  0  0  0  0  0
    2.9918   -2.7549    0.0000 C   0  0  0  0  0  0  0  0  0  0  0  0
    3.3037   -4.2221    0.0000 N   0  0  0  0  0  0  0  0  0  0  0  0
    2.0046   -4.9721    0.0000 N   0  0  0  0  0  0  0  0  0  0  0  0
    0.8899   -3.9684    0.0000 N   0  0  0  0  0  0  0  0  0  0  0  0
    1.5000   -2.5981    0.0000 N   0  0  0  0  0  0  0  0  0  0  0  0
    0.7500   -1.2990    0.0000 C   0  0  0  0  0  0  0  0  0  0  0  0
    1.5000    0.0000    0.0000 C   0  0  0  0  0  0  0  0  0  0  0  0
    0.7500    1.2990    0.0000 C   0  0  0  0  0  0  0  0  0  0  0  0
   -0.7500    1.2990    0.0000 C   0  0  0  0  0  0  0  0  0  0  0  0
   -1.5000    2.5981    0.0000 C   0  0  0  0  0  0  0  0  0  0  0  0
   -2.9918    2.7549    0.0000 N   0  0  0  0  0  0  0  0  0  0  0  0
   -3.3037    4.2221    0.0000 N   0  0  0  0  0  0  0  0  0  0  0  0
   -2.0046    4.9721    0.0000 N   0  0  0  0  0  0  0  0  0  0  0  0
   -0.8899    3.9684    0.0000 N   0  0  0  0  0  0  0  0  0  0  0  0
    0.5773    4.2803    0.0000 C   0  0  0  0  0  0  0  0  0  0  0  0
    1.5810    3.1655    0.0000 C   0  0  0  0  0  0  0  0  0  0  0  0
    3.0482    3.4774    0.0000 C   0  0  0  0  0  0  0  0  0  0  0  0
    3.5118    4.9040    0.0000 C   0  0  0  0  0  0  0  0  0  0  0  0
    4.9790    5.2159    0.0000 C   0  0  0  0  0  0  0  0  0  0  0  0
    5.9827    4.1011    0.0000 C   0  0  0  0  0  0  0  0  0  0  0  0
    7.4499    4.4130    0.0000 C   0  0  0  0  0  0  0  0  0  0  0  0
    7.9134    5.8396    0.0000 C   0  0  0  0  0  0  0  0  0  0  0  0
    6.9097    6.9543    0.0000 C   0  0  0  0  0  0  0  0  0  0  0  0
    5.4425    6.6424    0.0000 C   0  0  0  0  0  0  0  0  0  0  0  0
    2.5081    6.0187    0.0000 C   0  0  0  0  0  0  0  0  0  0  0  0
    1.0409    5.7068    0.0000 C   0  0  0  0  0  0  0  0  0  0  0  0
    0.0372    6.8216    0.0000 C   0  0  0  0  0  0  0  0  0  0  0  0
    0.5007    8.2481    0.0000 C   0  0  0  0  0  0  0  0  0  0  0  0
   -0.5030    9.3629    0.0000 C   0  0  0  0  0  0  0  0  0  0  0  0
   -1.9702    9.0510    0.0000 C   0  0  0  0  0  0  0  0  0  0  0  0
   -2.4338    7.6244    0.0000 C   0  0  0  0  0  0  0  0  0  0  0  0
   -1.4301    6.5097    0.0000 C   0  0  0  0  0  0  0  0  0  0  0  0
   -1.5000    0.0000    0.0000 C   0  0  0  0  0  0  0  0  0  0  0  0
   -0.7500   -1.2990    0.0000 C   0  0  0  0  0  0  0  0  0  0  0  0
   -1.5000   -2.5981    0.0000 C   0  0  0  0  0  0  0  0  0  0  0  0
   -0.8899   -3.9684    0.0000 C   0  0  0  0  0  0  0  0  0  0  0  0
   -2.0046   -4.9721    0.0000 C   0  0  0  0  0  0  0  0  0  0  0  0
   -3.3037   -4.2221    0.0000 C   0  0  0  0  0  0  0  0  0  0  0  0
   -4.6740   -4.8322    0.0000 C   0  0  0  0  0  0  0  0  0  0  0  0
   -2.9918   -2.7549    0.0000 C   0  0  0  0  0  0  0  0  0  0  0  0
   -3.9955   -1.6402    0.0000 O   0  0  0  0  0  0  0  0  0  0  0  0
    6.0728   -3.3223    0.0000 N   0  0  0  0  0  0  0  0  0  0  0  0
  1  2  1  0
  2  3  1  0
  3  4  2  0
  4  5  1  0
  5  6  2  0
  6  7  1  0
  7  8  1  0
  8  9  2  0
  9 10  1  0
 10 11  2  0
 11 12  1  0
 12 13  1  0
 13 14  2  0
 14 15  1  0
 15 16  2  0
 16 17  1  0
 17 18  2  0
 18 19  1  0
 19 20  2  0
 20 21  1  0
 21 22  1  0
 22 23  2  0
 23 24  1  0
 24 25  2  0
 25 26  1  0
 26 27  2  0
 27 28  1  0
 28 29  2  0
 29 30  1  0
 30 31  2  0
 25 32  1  0
 32 33  2  0
 33 34  1  0
 34 35  2  0
 35 36  1  0
 36 37  2  0
 37 38  1  0
 38 39  2  0
 16 40  1  0
 40 41  2  0
 41 42  1  0
 42 43  2  0
 43 44  1  0
 44 45  2  0
 45 46  1  0
 45 47  1  0
 47 48  2  0
  6 49  1  0
 49  3  1  0
 12  8  1  0
 41 13  1  0
 47 42  1  0
 21 17  1  0
 33 22  1  0
 39 34  1  0
 31 26  1  0
M  END
>  <Title>  (123) 
idAAESgen7

$$$$

     RDKit          2D

 40 45  0  0  0  0  0  0  0  0999 V2000
  -11.7275   -9.0020    0.0000 C   0  0  0  0  0  0  0  0  0  0  0  0
  -10.7238   -7.8873    0.0000 C   0  0  0  0  0  0  0  0  0  0  0  0
  -11.1873   -6.4607    0.0000 C   0  0  0  0  0  0  0  0  0  0  0  0
  -10.1836   -5.3460    0.0000 C   0  0  0  0  0  0  0  0  0  0  0  0
   -8.7164   -5.6579    0.0000 C   0  0  0  0  0  0  0  0  0  0  0  0
   -7.7127   -4.5432    0.0000 C   0  0  0  0  0  0  0  0  0  0  0  0
   -8.1762   -3.1166    0.0000 O   0  0  0  0  0  0  0  0  0  0  0  0
   -6.2455   -4.8550    0.0000 N   0  0  0  0  0  0  0  0  0  0  0  0
   -5.2418   -3.7403    0.0000 C   0  0  0  0  0  0  0  0  0  0  0  0
   -5.5537   -2.2731    0.0000 N   0  0  0  0  0  0  0  0  0  0  0  0
   -4.2546   -1.5231    0.0000 N   0  0  0  0  0  0  0  0  0  0  0  0
   -3.1399   -2.5268    0.0000 N   0  0  0  0  0  0  0  0  0  0  0  0
   -3.7500   -3.8971    0.0000 N   0  0  0  0  0  0  0  0  0  0  0  0
   -3.0000   -5.1962    0.0000 C   0  0  0  0  0  0  0  0  0  0  0  0
   -3.7500   -6.4952    0.0000 C   0  0  0  0  0  0  0  0  0  0  0  0
   -3.0000   -7.7942    0.0000 C   0  0  0  0  0  0  0  0  0  0  0  0
   -1.5000   -7.7942    0.0000 C   0  0  0  0  0  0  0  0  0  0  0  0
   -0.7500   -9.0933    0.0000 C   0  0  0  0  0  0  0  0  0  0  0  0
   -1.5000  -10.3923    0.0000 C   0  0  0  0  0  0  0  0  0  0  0  0
   -0.7500  -11.6913    0.0000 C   0  0  0  0  0  0  0  0  0  0  0  0
    0.7500  -11.6913    0.0000 C   0  0  0  0  0  0  0  0  0  0  0  0
    1.5000  -10.3923    0.0000 C   0  0  0  0  0  0  0  0  0  0  0  0
    0.7500   -9.0933    0.0000 C   0  0  0  0  0  0  0  0  0  0  0  0
   -0.7500   -6.4952    0.0000 C   0  0  0  0  0  0  0  0  0  0  0  0
   -1.5000   -5.1962    0.0000 C   0  0  0  0  0  0  0  0  0  0  0  0
   -0.7500   -3.8971    0.0000 N   0  0  0  0  0  0  0  0  0  0  0  0
   -1.5000   -2.5981    0.0000 N   0  0  0  0  0  0  0  0  0  0  0  0
   -0.7500   -1.2990    0.0000 C   0  0  0  0  0  0  0  0  0  0  0  0
   -1.5000    0.0000    0.0000 O   0  0  0  0  0  0  0  0  0  0  0  0
    0.7500   -1.2990    0.0000 C   0  0  0  0  0  0  0  0  0  0  0  0
    1.5000    0.0000    0.0000 C   0  0  0  0  0  0  0  0  0  0  0  0
    3.0000    0.0000    0.0000 C   0  0  0  0  0  0  0  0  0  0  0  0
    3.7500   -1.2990    0.0000 C   0  0  0  0  0  0  0  0  0  0  0  0
    3.0000   -2.5981    0.0000 C   0  0  0  0  0  0  0  0  0  0  0  0
    1.5000   -2.5981    0.0000 C   0  0  0  0  0  0  0  0  0  0  0  0
    0.7500   -3.8971    0.0000 C   0  0  0  0  0  0  0  0  0  0  0  0
    1.5000   -5.1962    0.0000 O   0  0  0  0  0  0  0  0  0  0  0  0
   -8.2529   -7.0845    0.0000 C   0  0  0  0  0  0  0  0  0  0  0  0
   -6.7856   -7.3963    0.0000 O   0  0  0  0  0  0  0  0  0  0  0  0
   -9.2566   -8.1992    0.0000 N   0  0  0  0  0  0  0  0  0  0  0  0
  1  2  1  0
  2  3  2  0
  3  4  1  0
  4  5  2  0
  5  6  1  0
  6  7  2  0
  6  8  1  0
  8  9  1  0
  9 10  2  0
 10 11  1  0
 11 12  2  0
 12 13  1  0
 13 14  1  0
 14 15  2  0
 15 16  1  0
 16 17  2  0
 17 18  1  0
 18 19  2  0
 19 20  1  0
 20 21  2  0
 21 22  1  0
 22 23  2  0
 17 24  1  0
 24 25  2  0
 25 26  1  0
 26 27  1  0
 27 28  1  0
 28 29  2  0
 28 30  1  0
 30 31  2  0
 31 32  1  0
 32 33  2  0
 33 34  1  0
 34 35  2  0
 35 36  1  0
 36 37  2  0
  5 38  1  0
 38 39  2  0
 38 40  1  0
 40  2  1  0
 13  9  1  0
 25 14  1  0
 36 26  1  0
 23 18  1  0
 35 30  1  0
M  END
>  <Title>  (124) 
idAAETgen7

$$$$

     RDKit          2D

 17 17  0  0  0  0  0  0  0  0999 V2000
    6.0000   -2.5981    0.0000 C   0  0  0  0  0  0  0  0  0  0  0  0
    5.2500   -1.2990    0.0000 C   0  0  0  0  0  0  0  0  0  0  0  0
    6.0000    0.0000    0.0000 O   0  0  0  0  0  0  0  0  0  0  0  0
    3.7500   -1.2990    0.0000 N   0  0  0  0  0  0  0  0  0  0  0  0
    3.0000    0.0000    0.0000 C   0  0  0  0  0  0  0  0  0  0  0  0
    3.7500    1.2990    0.0000 O   0  0  0  0  0  0  0  0  0  0  0  0
    1.5000    0.0000    0.0000 C   0  0  0  0  0  0  0  0  0  0  0  0
    0.7500   -1.2990    0.0000 C   0  0  0  0  0  0  0  0  0  0  0  0
   -0.7500   -1.2990    0.0000 C   0  0  0  0  0  0  0  0  0  0  0  0
   -1.5000    0.0000    0.0000 C   0  0  0  0  0  0  0  0  0  0  0  0
   -3.0000    0.0000    0.0000 C   0  0  0  0  0  0  0  0  0  0  0  0
   -3.7500   -1.2990    0.0000 O   0  0  0  0  0  0  0  0  0  0  0  0
   -3.7500    1.2990    0.0000 N   0  0  0  0  0  0  0  0  0  0  0  0
   -5.2500    1.2990    0.0000 O   0  0  0  0  0  0  0  0  0  0  0  0
   -0.7500    1.2990    0.0000 C   0  0  0  0  0  0  0  0  0  0  0  0
   -1.5000    2.5981    0.0000 O   0  0  0  0  0  0  0  0  0  0  0  0
    0.7500    1.2990    0.0000 N   0  0  0  0  0  0  0  0  0  0  0  0
  1  2  1  0
  2  3  2  0
  2  4  1  0
  4  5  1  0
  5  6  2  0
  5  7  1  0
  7  8  1  0
  8  9  1  0
  9 10  2  0
 10 11  1  0
 11 12  2  0
 11 13  1  0
 13 14  1  0
 10 15  1  0
 15 16  2  0
 15 17  1  0
 17  7  1  0
M  END
>  <Title>  (125) 
idAAEUgen7

$$$$

     RDKit          2D

 29 33  0  0  0  0  0  0  0  0999 V2000
    3.0000    0.0000    0.0000 C   0  0  0  0  0  0  0  0  0  0  0  0
    1.5000    0.0000    0.0000 C   0  0  0  0  0  0  0  0  0  0  0  0
    0.7500   -1.2990    0.0000 C   0  0  0  0  0  0  0  0  0  0  0  0
   -0.7500   -1.2990    0.0000 C   0  0  0  0  0  0  0  0  0  0  0  0
   -1.5000    0.0000    0.0000 C   0  0  0  0  0  0  0  0  0  0  0  0
   -3.0000    0.0000    0.0000 C   0  0  0  0  0  0  0  0  0  0  0  0
   -3.8817   -1.2135    0.0000 N   0  0  0  0  0  0  0  0  0  0  0  0
   -5.3083   -0.7500    0.0000 N   0  0  0  0  0  0  0  0  0  0  0  0
   -5.3083    0.7500    0.0000 N   0  0  0  0  0  0  0  0  0  0  0  0
   -3.8817    1.2135    0.0000 N   0  0  0  0  0  0  0  0  0  0  0  0
   -3.4182    2.6401    0.0000 C   0  0  0  0  0  0  0  0  0  0  0  0
   -1.9509    2.9520    0.0000 C   0  0  0  0  0  0  0  0  0  0  0  0
   -1.4874    4.3786    0.0000 C   0  0  0  0  0  0  0  0  0  0  0  0
   -2.4911    5.4933    0.0000 C   0  0  0  0  0  0  0  0  0  0  0  0
   -2.0276    6.9199    0.0000 C   0  0  0  0  0  0  0  0  0  0  0  0
   -2.9093    8.1334    0.0000 N   0  0  0  0  0  0  0  0  0  0  0  0
   -2.0276    9.3469    0.0000 N   0  0  0  0  0  0  0  0  0  0  0  0
   -0.6010    8.8834    0.0000 N   0  0  0  0  0  0  0  0  0  0  0  0
   -0.6010    7.3834    0.0000 N   0  0  0  0  0  0  0  0  0  0  0  0
    0.6125    6.5017    0.0000 C   0  0  0  0  0  0  0  0  0  0  0  0
    0.4557    5.0099    0.0000 C   0  0  0  0  0  0  0  0  0  0  0  0
    1.6693    4.1283    0.0000 C   0  0  0  0  0  0  0  0  0  0  0  0
    3.0396    4.7384    0.0000 C   0  0  0  0  0  0  0  0  0  0  0  0
    3.1964    6.2301    0.0000 C   0  0  0  0  0  0  0  0  0  0  0  0
    1.9829    7.1118    0.0000 C   0  0  0  0  0  0  0  0  0  0  0  0
   -3.9583    5.1814    0.0000 C   0  0  0  0  0  0  0  0  0  0  0  0
   -4.4218    3.7548    0.0000 C   0  0  0  0  0  0  0  0  0  0  0  0
   -0.7500    1.2990    0.0000 C   0  0  0  0  0  0  0  0  0  0  0  0
    0.7500    1.2990    0.0000 C   0  0  0  0  0  0  0  0  0  0  0  0
  1  2  1  0
  2  3  2  0
  3  4  1  0
  4  5  2  0
  5  6  1  0
  6  7  2  0
  7  8  1  0
  8  9  2  0
  9 10  1  0
 10 11  1  0
 11 12  2  0
 12 13  1  0
 13 14  2  0
 14 15  1  0
 15 16  2  0
 16 17  1  0
 17 18  2  0
 18 19  1  0
 19 20  1  0
 20 21  2  0
 21 22  1  0
 22 23  2  0
 23 24  1  0
 24 25  2  0
 14 26  1  0
 26 27  2  0
  5 28  1  0
 28 29  1  0
 29  2  1  0
 10  6  1  0
 27 11  1  0
 19 15  1  0
 25 20  1  0
M  END
>  <Title>  (126) 
idAAEVgen7

$$$$

     RDKit          2D

 28 31  0  0  0  0  0  0  0  0999 V2000
    3.0000    0.0000    0.0000 C   0  0  0  0  0  0  0  0  0  0  0  0
    1.5000    0.0000    0.0000 C   0  0  0  0  0  0  0  0  0  0  0  0
    0.7500   -1.2990    0.0000 C   0  0  0  0  0  0  0  0  0  0  0  0
   -0.7500   -1.2990    0.0000 C   0  0  0  0  0  0  0  0  0  0  0  0
   -1.5000    0.0000    0.0000 C   0  0  0  0  0  0  0  0  0  0  0  0
   -3.0000    0.0000    0.0000 C   0  0  0  0  0  0  0  0  0  0  0  0
   -3.7500   -1.2990    0.0000 O   0  0  0  0  0  0  0  0  0  0  0  0
   -3.7500    1.2990    0.0000 N   0  0  0  0  0  0  0  0  0  0  0  0
   -5.2500    1.2990    0.0000 C   0  0  0  0  0  0  0  0  0  0  0  0
   -6.0000    2.5981    0.0000 C   0  0  0  0  0  0  0  0  0  0  0  0
   -7.5000    2.5981    0.0000 C   0  0  0  0  0  0  0  0  0  0  0  0
   -8.2500    1.2990    0.0000 C   0  0  0  0  0  0  0  0  0  0  0  0
   -9.7500    1.2990    0.0000 C   0  0  0  0  0  0  0  0  0  0  0  0
  -10.6317    0.0855    0.0000 N   0  0  0  0  0  0  0  0  0  0  0  0
  -12.0583    0.5490    0.0000 N   0  0  0  0  0  0  0  0  0  0  0  0
  -12.0583    2.0490    0.0000 N   0  0  0  0  0  0  0  0  0  0  0  0
  -10.6317    2.5126    0.0000 N   0  0  0  0  0  0  0  0  0  0  0  0
  -10.1682    3.9391    0.0000 C   0  0  0  0  0  0  0  0  0  0  0  0
   -8.7009    4.2510    0.0000 C   0  0  0  0  0  0  0  0  0  0  0  0
   -8.2374    5.6776    0.0000 C   0  0  0  0  0  0  0  0  0  0  0  0
   -9.2411    6.7923    0.0000 C   0  0  0  0  0  0  0  0  0  0  0  0
  -10.7083    6.4805    0.0000 C   0  0  0  0  0  0  0  0  0  0  0  0
  -11.1718    5.0539    0.0000 C   0  0  0  0  0  0  0  0  0  0  0  0
   -7.5000    0.0000    0.0000 C   0  0  0  0  0  0  0  0  0  0  0  0
   -6.0000    0.0000    0.0000 C   0  0  0  0  0  0  0  0  0  0  0  0
   -0.7500    1.2990    0.0000 C   0  0  0  0  0  0  0  0  0  0  0  0
    0.7500    1.2990    0.0000 C   0  0  0  0  0  0  0  0  0  0  0  0
    1.5000    2.5981    0.0000 C   0  0  0  0  0  0  0  0  0  0  0  0
  1  2  1  0
  2  3  2  0
  3  4  1  0
  4  5  2  0
  5  6  1  0
  6  7  2  0
  6  8  1  0
  8  9  1  0
  9 10  2  0
 10 11  1  0
 11 12  2  0
 12 13  1  0
 13 14  2  0
 14 15  1  0
 15 16  2  0
 16 17  1  0
 17 18  1  0
 18 19  2  0
 19 20  1  0
 20 21  2  0
 21 22  1  0
 22 23  2  0
 12 24  1  0
 24 25  2  0
  5 26  1  0
 26 27  2  0
 27 28  1  0
 27  2  1  0
 25  9  1  0
 17 13  1  0
 23 18  1  0
M  END
>  <Title>  (127) 
idAAEWgen7

$$$$

     RDKit          2D

 61 69  0  0  0  0  0  0  0  0999 V2000
    3.0000    0.0000    0.0000 C   0  0  0  0  0  0  0  0  0  0  0  0
    1.5000    0.0000    0.0000 C   0  0  0  0  0  0  0  0  0  0  0  0
    0.7500   -1.2990    0.0000 C   0  0  0  0  0  0  0  0  0  0  0  0
   -0.7500   -1.2990    0.0000 C   0  0  0  0  0  0  0  0  0  0  0  0
   -1.5000    0.0000    0.0000 C   0  0  0  0  0  0  0  0  0  0  0  0
   -3.0000    0.0000    0.0000 C   0  0  0  0  0  0  0  0  0  0  0  0
   -3.7500   -1.2990    0.0000 O   0  0  0  0  0  0  0  0  0  0  0  0
   -3.7500    1.2990    0.0000 N   0  0  0  0  0  0  0  0  0  0  0  0
   -5.2500    1.2990    0.0000 C   0  0  0  0  0  0  0  0  0  0  0  0
   -6.1317    0.0855    0.0000 N   0  0  0  0  0  0  0  0  0  0  0  0
   -7.5583    0.5490    0.0000 N   0  0  0  0  0  0  0  0  0  0  0  0
   -7.5583    2.0490    0.0000 N   0  0  0  0  0  0  0  0  0  0  0  0
   -6.1317    2.5126    0.0000 N   0  0  0  0  0  0  0  0  0  0  0  0
   -5.6682    3.9391    0.0000 C   0  0  0  0  0  0  0  0  0  0  0  0
   -4.2009    4.2510    0.0000 C   0  0  0  0  0  0  0  0  0  0  0  0
   -3.7374    5.6776    0.0000 C   0  0  0  0  0  0  0  0  0  0  0  0
   -4.7411    6.7923    0.0000 C   0  0  0  0  0  0  0  0  0  0  0  0
   -4.2776    8.2189    0.0000 C   0  0  0  0  0  0  0  0  0  0  0  0
   -5.2813    9.3336    0.0000 O   0  0  0  0  0  0  0  0  0  0  0  0
   -2.8104    8.5308    0.0000 N   0  0  0  0  0  0  0  0  0  0  0  0
   -2.3468    9.9574    0.0000 C   0  0  0  0  0  0  0  0  0  0  0  0
   -3.2285   11.1709    0.0000 N   0  0  0  0  0  0  0  0  0  0  0  0
   -2.3468   12.3844    0.0000 N   0  0  0  0  0  0  0  0  0  0  0  0
   -0.9202   11.9209    0.0000 N   0  0  0  0  0  0  0  0  0  0  0  0
   -0.9202   10.4209    0.0000 N   0  0  0  0  0  0  0  0  0  0  0  0
    0.2933    9.5392    0.0000 C   0  0  0  0  0  0  0  0  0  0  0  0
    0.1365    8.0474    0.0000 C   0  0  0  0  0  0  0  0  0  0  0  0
    1.3500    7.1657    0.0000 C   0  0  0  0  0  0  0  0  0  0  0  0
    2.7203    7.7758    0.0000 C   0  0  0  0  0  0  0  0  0  0  0  0
    2.8771    9.2676    0.0000 C   0  0  0  0  0  0  0  0  0  0  0  0
    1.6636   10.1493    0.0000 C   0  0  0  0  0  0  0  0  0  0  0  0
   -6.2083    6.4805    0.0000 C   0  0  0  0  0  0  0  0  0  0  0  0
   -6.6718    5.0539    0.0000 C   0  0  0  0  0  0  0  0  0  0  0  0
   -8.1391    4.7420    0.0000 C   0  0  0  0  0  0  0  0  0  0  0  0
   -8.6026    3.3154    0.0000 C   0  0  0  0  0  0  0  0  0  0  0  0
  -10.0698    3.0035    0.0000 C   0  0  0  0  0  0  0  0  0  0  0  0
  -11.0735    4.1183    0.0000 C   0  0  0  0  0  0  0  0  0  0  0  0
  -12.5407    3.8064    0.0000 C   0  0  0  0  0  0  0  0  0  0  0  0
  -13.6555    4.8101    0.0000 N   0  0  0  0  0  0  0  0  0  0  0  0
  -14.9545    4.0601    0.0000 N   0  0  0  0  0  0  0  0  0  0  0  0
  -14.6426    2.5929    0.0000 N   0  0  0  0  0  0  0  0  0  0  0  0
  -13.1508    2.4361    0.0000 N   0  0  0  0  0  0  0  0  0  0  0  0
  -12.4008    1.1370    0.0000 C   0  0  0  0  0  0  0  0  0  0  0  0
  -10.9008    1.1370    0.0000 C   0  0  0  0  0  0  0  0  0  0  0  0
  -10.1508   -0.1620    0.0000 C   0  0  0  0  0  0  0  0  0  0  0  0
  -10.9008   -1.4610    0.0000 C   0  0  0  0  0  0  0  0  0  0  0  0
  -12.4008   -1.4610    0.0000 C   0  0  0  0  0  0  0  0  0  0  0  0
  -13.1508   -0.1620    0.0000 C   0  0  0  0  0  0  0  0  0  0  0  0
  -10.6100    5.5448    0.0000 C   0  0  0  0  0  0  0  0  0  0  0  0
   -9.1428    5.8567    0.0000 C   0  0  0  0  0  0  0  0  0  0  0  0
   -8.6792    7.2833    0.0000 C   0  0  0  0  0  0  0  0  0  0  0  0
   -7.2120    7.5952    0.0000 C   0  0  0  0  0  0  0  0  0  0  0  0
   -6.7485    9.0218    0.0000 C   0  0  0  0  0  0  0  0  0  0  0  0
   -7.7522   10.1365    0.0000 C   0  0  0  0  0  0  0  0  0  0  0  0
   -7.2887   11.5631    0.0000 C   0  0  0  0  0  0  0  0  0  0  0  0
   -9.2194    9.8246    0.0000 C   0  0  0  0  0  0  0  0  0  0  0  0
  -10.2231   10.9393    0.0000 O   0  0  0  0  0  0  0  0  0  0  0  0
   -9.6829    8.3980    0.0000 N   0  0  0  0  0  0  0  0  0  0  0  0
   -0.7500    1.2990    0.0000 C   0  0  0  0  0  0  0  0  0  0  0  0
   -1.5000    2.5981    0.0000 O   0  0  0  0  0  0  0  0  0  0  0  0
    0.7500    1.2990    0.0000 N   0  0  0  0  0  0  0  0  0  0  0  0
  1  2  1  0
  2  3  2  0
  3  4  1  0
  4  5  2  0
  5  6  1  0
  6  7  2  0
  6  8  1  0
  8  9  1  0
  9 10  2  0
 10 11  1  0
 11 12  2  0
 12 13  1  0
 13 14  1  0
 14 15  2  0
 15 16  1  0
 16 17  2  0
 17 18  1  0
 18 19  2  0
 18 20  1  0
 20 21  1  0
 21 22  2  0
 22 23  1  0
 23 24  2  0
 24 25  1  0
 25 26  1  0
 26 27  2  0
 27 28  1  0
 28 29  2  0
 29 30  1  0
 30 31  2  0
 17 32  1  0
 32 33  2  0
 33 34  1  0
 34 35  2  0
 35 36  1  0
 36 37  2  0
 37 38  1  0
 38 39  2  0
 39 40  1  0
 40 41  2  0
 41 42  1  0
 42 43  1  0
 43 44  2  0
 44 45  1  0
 45 46  2  0
 46 47  1  0
 47 48  2  0
 37 49  1  0
 49 50  2  0
 50 51  1  0
 51 52  2  0
 52 53  1  0
 53 54  2  0
 54 55  1  0
 54 56  1  0
 56 57  2  0
 56 58  1  0
  5 59  1  0
 59 60  2  0
 59 61  1  0
 61  2  1  0
 13  9  1  0
 33 14  1  0
 50 34  1  0
 58 51  1  0
 25 21  1  0
 31 26  1  0
 42 38  1  0
 48 43  1  0
M  END
>  <Title>  (128) 
idAAEXgen7

$$$$

     RDKit          2D

 29 32  0  0  0  0  0  0  0  0999 V2000
    3.2286   -0.0000    0.0000 C   0  0  0  0  0  0  0  0  0  0  0  0
    1.7286    0.0000    0.0000 C   0  0  0  0  0  0  0  0  0  0  0  0
    1.0777    1.3515    0.0000 C   0  0  0  0  0  0  0  0  0  0  0  0
   -0.3846    1.6852    0.0000 C   0  0  0  0  0  0  0  0  0  0  0  0
   -1.5574    0.7500    0.0000 C   0  0  0  0  0  0  0  0  0  0  0  0
   -1.5574   -0.7500    0.0000 C   0  0  0  0  0  0  0  0  0  0  0  0
   -2.9088   -1.4008    0.0000 C   0  0  0  0  0  0  0  0  0  0  0  0
   -3.0209   -2.8966    0.0000 O   0  0  0  0  0  0  0  0  0  0  0  0
   -4.1482   -0.5558    0.0000 N   0  0  0  0  0  0  0  0  0  0  0  0
   -5.4997   -1.2067    0.0000 C   0  0  0  0  0  0  0  0  0  0  0  0
   -5.7675   -2.6826    0.0000 N   0  0  0  0  0  0  0  0  0  0  0  0
   -7.2539   -2.8839    0.0000 N   0  0  0  0  0  0  0  0  0  0  0  0
   -7.9047   -1.5325    0.0000 N   0  0  0  0  0  0  0  0  0  0  0  0
   -6.8205   -0.4959    0.0000 N   0  0  0  0  0  0  0  0  0  0  0  0
   -7.0219    0.9906    0.0000 C   0  0  0  0  0  0  0  0  0  0  0  0
   -5.8353    1.9081    0.0000 C   0  0  0  0  0  0  0  0  0  0  0  0
   -6.0366    3.3946    0.0000 C   0  0  0  0  0  0  0  0  0  0  0  0
   -7.4246    3.9634    0.0000 C   0  0  0  0  0  0  0  0  0  0  0  0
   -7.6259    5.4498    0.0000 C   0  0  0  0  0  0  0  0  0  0  0  0
   -6.4393    6.3674    0.0000 C   0  0  0  0  0  0  0  0  0  0  0  0
   -6.6407    7.8538    0.0000 C   0  0  0  0  0  0  0  0  0  0  0  0
   -8.0286    8.4227    0.0000 C   0  0  0  0  0  0  0  0  0  0  0  0
   -9.2153    7.5051    0.0000 C   0  0  0  0  0  0  0  0  0  0  0  0
   -9.0139    6.0187    0.0000 C   0  0  0  0  0  0  0  0  0  0  0  0
   -8.6112    3.0458    0.0000 C   0  0  0  0  0  0  0  0  0  0  0  0
   -8.4099    1.5594    0.0000 C   0  0  0  0  0  0  0  0  0  0  0  0
   -0.3846   -1.6852    0.0000 C   0  0  0  0  0  0  0  0  0  0  0  0
   -0.7184   -3.1476    0.0000 O   0  0  0  0  0  0  0  0  0  0  0  0
    1.0777   -1.3515    0.0000 N   0  0  0  0  0  0  0  0  0  0  0  0
  1  2  1  0
  2  3  2  0
  3  4  1  0
  4  5  2  0
  5  6  1  0
  6  7  1  0
  7  8  2  0
  7  9  1  0
  9 10  1  0
 10 11  2  0
 11 12  1  0
 12 13  2  0
 13 14  1  0
 14 15  1  0
 15 16  2  0
 16 17  1  0
 17 18  2  0
 18 19  1  0
 19 20  2  0
 20 21  1  0
 21 22  2  0
 22 23  1  0
 23 24  2  0
 18 25  1  0
 25 26  2  0
  6 27  1  0
 27 28  2  0
 27 29  1  0
 29  2  1  0
 14 10  1  0
 26 15  1  0
 24 19  1  0
M  END
>  <Title>  (129) 
idAAEYgen7

$$$$

     RDKit          2D

 34 38  0  0  0  0  0  0  0  0999 V2000
    5.2500    1.2990    0.0000 C   0  0  0  0  0  0  0  0  0  0  0  0
    3.7500    1.2990    0.0000 C   0  0  0  0  0  0  0  0  0  0  0  0
    3.0000    2.5981    0.0000 O   0  0  0  0  0  0  0  0  0  0  0  0
    3.0000    0.0000    0.0000 O   0  0  0  0  0  0  0  0  0  0  0  0
    1.5000    0.0000    0.0000 C   0  0  0  0  0  0  0  0  0  0  0  0
    0.7500    1.2990    0.0000 C   0  0  0  0  0  0  0  0  0  0  0  0
   -0.7500    1.2990    0.0000 C   0  0  0  0  0  0  0  0  0  0  0  0
   -1.5000    0.0000    0.0000 C   0  0  0  0  0  0  0  0  0  0  0  0
   -3.0000    0.0000    0.0000 C   0  0  0  0  0  0  0  0  0  0  0  0
   -3.8817   -1.2135    0.0000 N   0  0  0  0  0  0  0  0  0  0  0  0
   -5.3083   -0.7500    0.0000 N   0  0  0  0  0  0  0  0  0  0  0  0
   -5.3083    0.7500    0.0000 N   0  0  0  0  0  0  0  0  0  0  0  0
   -3.8817    1.2135    0.0000 N   0  0  0  0  0  0  0  0  0  0  0  0
   -3.4182    2.6401    0.0000 C   0  0  0  0  0  0  0  0  0  0  0  0
   -1.9509    2.9520    0.0000 C   0  0  0  0  0  0  0  0  0  0  0  0
   -1.4874    4.3786    0.0000 C   0  0  0  0  0  0  0  0  0  0  0  0
   -2.4911    5.4933    0.0000 C   0  0  0  0  0  0  0  0  0  0  0  0
   -2.0276    6.9199    0.0000 C   0  0  0  0  0  0  0  0  0  0  0  0
   -0.5604    7.2317    0.0000 C   0  0  0  0  0  0  0  0  0  0  0  0
   -0.0968    8.6583    0.0000 C   0  0  0  0  0  0  0  0  0  0  0  0
   -1.1005    9.7730    0.0000 C   0  0  0  0  0  0  0  0  0  0  0  0
   -0.6370   11.1996    0.0000 C   0  0  0  0  0  0  0  0  0  0  0  0
    0.8302   11.5115    0.0000 C   0  0  0  0  0  0  0  0  0  0  0  0
    1.2937   12.9381    0.0000 C   0  0  0  0  0  0  0  0  0  0  0  0
    0.2901   14.0528    0.0000 C   0  0  0  0  0  0  0  0  0  0  0  0
   -1.1772   13.7409    0.0000 C   0  0  0  0  0  0  0  0  0  0  0  0
   -1.6407   12.3143    0.0000 C   0  0  0  0  0  0  0  0  0  0  0  0
   -2.5677    9.4612    0.0000 C   0  0  0  0  0  0  0  0  0  0  0  0
   -3.0313    8.0346    0.0000 C   0  0  0  0  0  0  0  0  0  0  0  0
   -3.9583    5.1814    0.0000 C   0  0  0  0  0  0  0  0  0  0  0  0
   -4.4218    3.7548    0.0000 C   0  0  0  0  0  0  0  0  0  0  0  0
   -0.7500   -1.2990    0.0000 C   0  0  0  0  0  0  0  0  0  0  0  0
   -1.5000   -2.5981    0.0000 O   0  0  0  0  0  0  0  0  0  0  0  0
    0.7500   -1.2990    0.0000 N   0  0  0  0  0  0  0  0  0  0  0  0
  1  2  1  0
  2  3  2  0
  2  4  1  0
  4  5  1  0
  5  6  2  0
  6  7  1  0
  7  8  2  0
  8  9  1  0
  9 10  2  0
 10 11  1  0
 11 12  2  0
 12 13  1  0
 13 14  1  0
 14 15  2  0
 15 16  1  0
 16 17  2  0
 17 18  1  0
 18 19  2  0
 19 20  1  0
 20 21  2  0
 21 22  1  0
 22 23  2  0
 23 24  1  0
 24 25  2  0
 25 26  1  0
 26 27  2  0
 21 28  1  0
 28 29  2  0
 17 30  1  0
 30 31  2  0
  8 32  1  0
 32 33  2  0
 32 34  1  0
 34  5  1  0
 13  9  1  0
 31 14  1  0
 29 18  1  0
 27 22  1  0
M  END
>  <Title>  (130) 
idAAEZgen7

$$$$

     RDKit          2D

 31 34  0  0  0  0  0  0  0  0999 V2000
    3.0000    0.0000    0.0000 C   0  0  0  0  0  0  0  0  0  0  0  0
    1.5000    0.0000    0.0000 C   0  0  0  0  0  0  0  0  0  0  0  0
    0.7500   -1.2990    0.0000 C   0  0  0  0  0  0  0  0  0  0  0  0
   -0.7500   -1.2990    0.0000 C   0  0  0  0  0  0  0  0  0  0  0  0
   -1.5000    0.0000    0.0000 C   0  0  0  0  0  0  0  0  0  0  0  0
   -3.0000    0.0000    0.0000 C   0  0  0  0  0  0  0  0  0  0  0  0
   -3.7500   -1.2990    0.0000 O   0  0  0  0  0  0  0  0  0  0  0  0
   -3.7500    1.2990    0.0000 N   0  0  0  0  0  0  0  0  0  0  0  0
   -5.2500    1.2990    0.0000 C   0  0  0  0  0  0  0  0  0  0  0  0
   -6.1317    0.0855    0.0000 N   0  0  0  0  0  0  0  0  0  0  0  0
   -7.5583    0.5490    0.0000 N   0  0  0  0  0  0  0  0  0  0  0  0
   -7.5583    2.0490    0.0000 N   0  0  0  0  0  0  0  0  0  0  0  0
   -6.1317    2.5126    0.0000 N   0  0  0  0  0  0  0  0  0  0  0  0
   -5.6682    3.9391    0.0000 C   0  0  0  0  0  0  0  0  0  0  0  0
   -6.5498    5.1527    0.0000 C   0  0  0  0  0  0  0  0  0  0  0  0
   -5.6682    6.3662    0.0000 C   0  0  0  0  0  0  0  0  0  0  0  0
   -4.2416    5.9027    0.0000 C   0  0  0  0  0  0  0  0  0  0  0  0
   -3.0280    6.7844    0.0000 C   0  0  0  0  0  0  0  0  0  0  0  0
   -3.1848    8.2761    0.0000 O   0  0  0  0  0  0  0  0  0  0  0  0
   -1.6577    6.1742    0.0000 N   0  0  0  0  0  0  0  0  0  0  0  0
   -0.4442    7.0559    0.0000 C   0  0  0  0  0  0  0  0  0  0  0  0
    0.9261    6.4458    0.0000 C   0  0  0  0  0  0  0  0  0  0  0  0
    2.1396    7.3275    0.0000 C   0  0  0  0  0  0  0  0  0  0  0  0
    1.9829    8.8193    0.0000 C   0  0  0  0  0  0  0  0  0  0  0  0
    0.6125    9.4294    0.0000 C   0  0  0  0  0  0  0  0  0  0  0  0
   -0.6010    8.5477    0.0000 C   0  0  0  0  0  0  0  0  0  0  0  0
   -4.2416    4.4027    0.0000 C   0  0  0  0  0  0  0  0  0  0  0  0
   -3.0280    3.5210    0.0000 O   0  0  0  0  0  0  0  0  0  0  0  0
   -0.7500    1.2990    0.0000 C   0  0  0  0  0  0  0  0  0  0  0  0
   -1.5000    2.5981    0.0000 O   0  0  0  0  0  0  0  0  0  0  0  0
    0.7500    1.2990    0.0000 N   0  0  0  0  0  0  0  0  0  0  0  0
  1  2  1  0
  2  3  2  0
  3  4  1  0
  4  5  2  0
  5  6  1  0
  6  7  2  0
  6  8  1  0
  8  9  1  0
  9 10  2  0
 10 11  1  0
 11 12  2  0
 12 13  1  0
 13 14  1  0
 14 15  2  0
 15 16  1  0
 16 17  2  0
 17 18  1  0
 18 19  2  0
 18 20  1  0
 20 21  1  0
 21 22  2  0
 22 23  1  0
 23 24  2  0
 24 25  1  0
 25 26  2  0
 17 27  1  0
 27 28  2  0
  5 29  1  0
 29 30  2  0
 29 31  1  0
 31  2  1  0
 13  9  1  0
 27 14  1  0
 26 21  1  0
M  END
>  <Title>  (131) 
idAAFAgen7

$$$$

     RDKit          2D

 23 25  0  0  0  0  0  0  0  0999 V2000
   -0.8524  -14.0340    0.0000 C   0  0  0  0  0  0  0  0  0  0  0  0
   -0.1024  -12.7350    0.0000 C   0  0  0  0  0  0  0  0  0  0  0  0
    1.3894  -12.5782    0.0000 C   0  0  0  0  0  0  0  0  0  0  0  0
    1.7012  -11.1110    0.0000 C   0  0  0  0  0  0  0  0  0  0  0  0
    0.4022  -10.3610    0.0000 C   0  0  0  0  0  0  0  0  0  0  0  0
    0.2454   -8.8692    0.0000 C   0  0  0  0  0  0  0  0  0  0  0  0
   -1.0537   -8.1192    0.0000 C   0  0  0  0  0  0  0  0  0  0  0  0
   -0.7418   -6.6520    0.0000 C   0  0  0  0  0  0  0  0  0  0  0  0
    0.7500   -6.4952    0.0000 C   0  0  0  0  0  0  0  0  0  0  0  0
    1.5000   -5.1962    0.0000 C   0  0  0  0  0  0  0  0  0  0  0  0
    3.0000   -5.1962    0.0000 O   0  0  0  0  0  0  0  0  0  0  0  0
    0.7500   -3.8971    0.0000 N   0  0  0  0  0  0  0  0  0  0  0  0
    1.5000   -2.5981    0.0000 C   0  0  0  0  0  0  0  0  0  0  0  0
    3.0000   -2.5981    0.0000 O   0  0  0  0  0  0  0  0  0  0  0  0
    0.7500   -1.2990    0.0000 C   0  0  0  0  0  0  0  0  0  0  0  0
    1.5000    0.0000    0.0000 C   0  0  0  0  0  0  0  0  0  0  0  0
    0.7500    1.2990    0.0000 C   0  0  0  0  0  0  0  0  0  0  0  0
   -0.7500    1.2990    0.0000 C   0  0  0  0  0  0  0  0  0  0  0  0
   -1.5000    0.0000    0.0000 C   0  0  0  0  0  0  0  0  0  0  0  0
   -0.7500   -1.2990    0.0000 C   0  0  0  0  0  0  0  0  0  0  0  0
    1.3601   -7.8655    0.0000 C   0  0  0  0  0  0  0  0  0  0  0  0
    2.8273   -8.1774    0.0000 O   0  0  0  0  0  0  0  0  0  0  0  0
   -0.7125  -11.3647    0.0000 C   0  0  0  0  0  0  0  0  0  0  0  0
  1  2  1  0
  2  3  2  0
  3  4  1  0
  4  5  2  0
  5  6  1  0
  6  7  2  0
  7  8  1  0
  8  9  2  0
  9 10  1  0
 10 11  2  0
 10 12  1  0
 12 13  1  0
 13 14  2  0
 13 15  1  0
 15 16  2  0
 16 17  1  0
 17 18  2  0
 18 19  1  0
 19 20  2  0
  9 21  1  0
 21 22  2  0
  5 23  1  0
 23  2  1  0
 21  6  1  0
 20 15  1  0
M  END
>  <Title>  (132) 
idAAFBgen7

$$$$

     RDKit          2D

 50 57  0  0  0  0  0  0  0  0999 V2000
    2.1412    1.9606    0.0000 C   0  0  0  0  0  0  0  0  0  0  0  0
    2.2458    0.4643    0.0000 C   0  0  0  0  0  0  0  0  0  0  0  0
    1.0023   -0.3745    0.0000 C   0  0  0  0  0  0  0  0  0  0  0  0
    1.1069   -1.8709    0.0000 C   0  0  0  0  0  0  0  0  0  0  0  0
    2.4551   -2.5284    0.0000 C   0  0  0  0  0  0  0  0  0  0  0  0
    2.5597   -4.0248    0.0000 C   0  0  0  0  0  0  0  0  0  0  0  0
    3.9079   -4.6823    0.0000 O   0  0  0  0  0  0  0  0  0  0  0  0
    1.3162   -4.8636    0.0000 N   0  0  0  0  0  0  0  0  0  0  0  0
    1.4208   -6.3599    0.0000 C   0  0  0  0  0  0  0  0  0  0  0  0
    2.6929   -7.1548    0.0000 N   0  0  0  0  0  0  0  0  0  0  0  0
    2.3300   -8.6102    0.0000 N   0  0  0  0  0  0  0  0  0  0  0  0
    0.8336   -8.7149    0.0000 N   0  0  0  0  0  0  0  0  0  0  0  0
    0.2717   -7.3241    0.0000 N   0  0  0  0  0  0  0  0  0  0  0  0
   -1.1837   -6.9612    0.0000 C   0  0  0  0  0  0  0  0  0  0  0  0
   -1.5972   -5.5193    0.0000 C   0  0  0  0  0  0  0  0  0  0  0  0
   -3.0526   -5.1564    0.0000 C   0  0  0  0  0  0  0  0  0  0  0  0
   -4.0946   -6.2354    0.0000 C   0  0  0  0  0  0  0  0  0  0  0  0
   -5.5500   -5.8725    0.0000 C   0  0  0  0  0  0  0  0  0  0  0  0
   -6.6991   -6.8367    0.0000 N   0  0  0  0  0  0  0  0  0  0  0  0
   -7.9712   -6.0419    0.0000 N   0  0  0  0  0  0  0  0  0  0  0  0
   -7.6083   -4.5864    0.0000 N   0  0  0  0  0  0  0  0  0  0  0  0
   -6.1120   -4.4818    0.0000 N   0  0  0  0  0  0  0  0  0  0  0  0
   -5.3171   -3.2097    0.0000 C   0  0  0  0  0  0  0  0  0  0  0  0
   -6.2406   -2.0277    0.0000 C   0  0  0  0  0  0  0  0  0  0  0  0
   -6.1882   -0.5286    0.0000 C   0  0  0  0  0  0  0  0  0  0  0  0
   -5.1845    0.5861    0.0000 C   0  0  0  0  0  0  0  0  0  0  0  0
   -6.5089    1.2903    0.0000 C   0  0  0  0  0  0  0  0  0  0  0  0
   -7.1665    2.6385    0.0000 C   0  0  0  0  0  0  0  0  0  0  0  0
   -6.9060    4.1157    0.0000 C   0  0  0  0  0  0  0  0  0  0  0  0
   -5.8270    5.1577    0.0000 C   0  0  0  0  0  0  0  0  0  0  0  0
   -4.3416    5.3665    0.0000 C   0  0  0  0  0  0  0  0  0  0  0  0
   -3.0172    4.6623    0.0000 C   0  0  0  0  0  0  0  0  0  0  0  0
   -2.3596    3.3141    0.0000 C   0  0  0  0  0  0  0  0  0  0  0  0
   -2.6201    1.8369    0.0000 C   0  0  0  0  0  0  0  0  0  0  0  0
   -3.6991    0.7949    0.0000 C   0  0  0  0  0  0  0  0  0  0  0  0
   -2.4271    0.0000    0.0000 N   0  0  0  0  0  0  0  0  0  0  0  0
   -1.9635   -1.4266    0.0000 N   0  0  0  0  0  0  0  0  0  0  0  0
   -2.5254   -2.8174    0.0000 N   0  0  0  0  0  0  0  0  0  0  0  0
   -3.8499   -3.5216    0.0000 N   0  0  0  0  0  0  0  0  0  0  0  0
   -3.6811   -7.6773    0.0000 C   0  0  0  0  0  0  0  0  0  0  0  0
   -2.2257   -8.0402    0.0000 C   0  0  0  0  0  0  0  0  0  0  0  0
    3.6986   -1.6896    0.0000 C   0  0  0  0  0  0  0  0  0  0  0  0
    3.5940   -0.1933    0.0000 C   0  0  0  0  0  0  0  0  0  0  0  0
    4.8376    0.6455    0.0000 N   0  0  0  0  0  0  0  0  0  0  0  0
    6.2471    0.1325    0.0000 N   0  0  0  0  0  0  0  0  0  0  0  0
    7.1706    1.3145    0.0000 C   0  0  0  0  0  0  0  0  0  0  0  0
    8.6697    1.2621    0.0000 C   0  0  0  0  0  0  0  0  0  0  0  0
    6.3318    2.5581    0.0000 C   0  0  0  0  0  0  0  0  0  0  0  0
    6.8448    3.9676    0.0000 O   0  0  0  0  0  0  0  0  0  0  0  0
    4.8899    2.1446    0.0000 N   0  0  0  0  0  0  0  0  0  0  0  0
  1  2  1  0
  2  3  2  0
  3  4  1  0
  4  5  2  0
  5  6  1  0
  6  7  2  0
  6  8  1  0
  8  9  1  0
  9 10  2  0
 10 11  1  0
 11 12  2  0
 12 13  1  0
 13 14  1  0
 14 15  2  0
 15 16  1  0
 16 17  2  0
 17 18  1  0
 18 19  2  0
 19 20  1  0
 20 21  2  0
 21 22  1  0
 22 23  1  0
 23 24  2  0
 24 25  1  0
 25 26  2  0
 26 27  1  0
 27 28  2  0
 28 29  1  0
 29 30  2  0
 30 31  1  0
 31 32  2  0
 32 33  1  0
 33 34  2  0
 34 35  1  0
 35 36  2  0
 36 37  1  0
 37 38  2  0
 38 39  1  0
 17 40  1  0
 40 41  2  0
  5 42  1  0
 42 43  2  0
 43 44  1  0
 44 45  1  0
 45 46  2  0
 46 47  1  0
 46 48  1  0
 48 49  2  0
 48 50  1  0
 43  2  1  0
 50 44  1  0
 13  9  1  0
 41 14  1  0
 22 18  1  0
 39 23  1  0
 35 26  1  0
 39 29  1  0
M  END
>  <Title>  (133) 
idAAFCgen7

$$$$

     RDKit          2D

 16 17  0  0  0  0  0  0  0  0999 V2000
    4.9233    5.9293    0.0000 C   0  0  0  0  0  0  0  0  0  0  0  0
    3.4233    5.9293    0.0000 O   0  0  0  0  0  0  0  0  0  0  0  0
    2.6733    4.6303    0.0000 C   0  0  0  0  0  0  0  0  0  0  0  0
    3.5183    3.3909    0.0000 C   0  0  0  0  0  0  0  0  0  0  0  0
    3.0761    1.9576    0.0000 C   0  0  0  0  0  0  0  0  0  0  0  0
    1.6798    1.4095    0.0000 C   0  0  0  0  0  0  0  0  0  0  0  0
    2.1929    0.0000    0.0000 C   0  0  0  0  0  0  0  0  0  0  0  0
    1.6798   -1.4095    0.0000 C   0  0  0  0  0  0  0  0  0  0  0  0
    0.3808   -2.1595    0.0000 C   0  0  0  0  0  0  0  0  0  0  0  0
   -1.0964   -1.8991    0.0000 C   0  0  0  0  0  0  0  0  0  0  0  0
   -2.0606   -0.7500    0.0000 C   0  0  0  0  0  0  0  0  0  0  0  0
   -2.0606    0.7500    0.0000 C   0  0  0  0  0  0  0  0  0  0  0  0
   -1.0964    1.8991    0.0000 C   0  0  0  0  0  0  0  0  0  0  0  0
    0.3808    2.1595    0.0000 C   0  0  0  0  0  0  0  0  0  0  0  0
    0.1572    3.6428    0.0000 C   0  0  0  0  0  0  0  0  0  0  0  0
    1.1775    4.7424    0.0000 C   0  0  0  0  0  0  0  0  0  0  0  0
  1  2  1  0
  2  3  1  0
  3  4  2  0
  4  5  1  0
  5  6  2  0
  6  7  1  0
  7  8  2  0
  8  9  1  0
  9 10  2  0
 10 11  1  0
 11 12  2  0
 12 13  1  0
 13 14  2  0
 14 15  1  0
 15 16  2  0
 16  3  1  0
 14  6  1  0
M  END
>  <Title>  (134) 
idAAFDgen7

$$$$

     RDKit          2D

 30 34  0  0  0  0  0  0  0  0999 V2000
  -11.5327    3.6666    0.0000 C   0  0  0  0  0  0  0  0  0  0  0  0
  -10.1624    4.2767    0.0000 O   0  0  0  0  0  0  0  0  0  0  0  0
   -8.9488    3.3950    0.0000 C   0  0  0  0  0  0  0  0  0  0  0  0
   -9.1056    1.9033    0.0000 C   0  0  0  0  0  0  0  0  0  0  0  0
   -7.8921    1.0216    0.0000 C   0  0  0  0  0  0  0  0  0  0  0  0
   -6.5218    1.6317    0.0000 C   0  0  0  0  0  0  0  0  0  0  0  0
   -5.3083    0.7500    0.0000 C   0  0  0  0  0  0  0  0  0  0  0  0
   -5.3083   -0.7500    0.0000 N   0  0  0  0  0  0  0  0  0  0  0  0
   -3.8817   -1.2135    0.0000 N   0  0  0  0  0  0  0  0  0  0  0  0
   -3.0000    0.0000    0.0000 N   0  0  0  0  0  0  0  0  0  0  0  0
   -3.8817    1.2135    0.0000 N   0  0  0  0  0  0  0  0  0  0  0  0
   -3.4182    2.6401    0.0000 C   0  0  0  0  0  0  0  0  0  0  0  0
   -4.2998    3.8536    0.0000 C   0  0  0  0  0  0  0  0  0  0  0  0
   -3.4182    5.0672    0.0000 C   0  0  0  0  0  0  0  0  0  0  0  0
   -1.9916    4.6036    0.0000 C   0  0  0  0  0  0  0  0  0  0  0  0
   -0.7780    5.4853    0.0000 C   0  0  0  0  0  0  0  0  0  0  0  0
   -0.7780    6.9853    0.0000 N   0  0  0  0  0  0  0  0  0  0  0  0
    0.6485    7.4488    0.0000 N   0  0  0  0  0  0  0  0  0  0  0  0
    1.5302    6.2353    0.0000 N   0  0  0  0  0  0  0  0  0  0  0  0
    0.6485    5.0218    0.0000 N   0  0  0  0  0  0  0  0  0  0  0  0
    1.1121    3.5952    0.0000 C   0  0  0  0  0  0  0  0  0  0  0  0
    0.1084    2.4805    0.0000 C   0  0  0  0  0  0  0  0  0  0  0  0
    0.5719    1.0539    0.0000 C   0  0  0  0  0  0  0  0  0  0  0  0
    2.0391    0.7420    0.0000 C   0  0  0  0  0  0  0  0  0  0  0  0
    3.0428    1.8568    0.0000 C   0  0  0  0  0  0  0  0  0  0  0  0
    2.5793    3.2833    0.0000 C   0  0  0  0  0  0  0  0  0  0  0  0
   -1.9916    3.1036    0.0000 C   0  0  0  0  0  0  0  0  0  0  0  0
   -0.7780    2.2220    0.0000 O   0  0  0  0  0  0  0  0  0  0  0  0
   -6.3650    3.1235    0.0000 C   0  0  0  0  0  0  0  0  0  0  0  0
   -7.5785    4.0051    0.0000 C   0  0  0  0  0  0  0  0  0  0  0  0
  1  2  1  0
  2  3  1  0
  3  4  2  0
  4  5  1  0
  5  6  2  0
  6  7  1  0
  7  8  2  0
  8  9  1  0
  9 10  2  0
 10 11  1  0
 11 12  1  0
 12 13  2  0
 13 14  1  0
 14 15  2  0
 15 16  1  0
 16 17  2  0
 17 18  1  0
 18 19  2  0
 19 20  1  0
 20 21  1  0
 21 22  2  0
 22 23  1  0
 23 24  2  0
 24 25  1  0
 25 26  2  0
 15 27  1  0
 27 28  2  0
  6 29  1  0
 29 30  1  0
 30  3  1  0
 11  7  1  0
 27 12  1  0
 20 16  1  0
 26 21  1  0
M  END
>  <Title>  (135) 
idAAFEgen7

$$$$

     RDKit          2D

 28 30  0  0  0  0  0  0  0  0999 V2000
    3.7500   -1.2990    0.0000 C   0  0  0  0  0  0  0  0  0  0  0  0
    3.0000    0.0000    0.0000 O   0  0  0  0  0  0  0  0  0  0  0  0
    1.5000    0.0000    0.0000 C   0  0  0  0  0  0  0  0  0  0  0  0
    0.7500   -1.2990    0.0000 C   0  0  0  0  0  0  0  0  0  0  0  0
   -0.7500   -1.2990    0.0000 C   0  0  0  0  0  0  0  0  0  0  0  0
   -1.5000    0.0000    0.0000 C   0  0  0  0  0  0  0  0  0  0  0  0
   -3.0000    0.0000    0.0000 C   0  0  0  0  0  0  0  0  0  0  0  0
   -3.7500   -1.2990    0.0000 O   0  0  0  0  0  0  0  0  0  0  0  0
   -3.7500    1.2990    0.0000 N   0  0  0  0  0  0  0  0  0  0  0  0
   -5.2500    1.2990    0.0000 C   0  0  0  0  0  0  0  0  0  0  0  0
   -6.1317    0.0855    0.0000 N   0  0  0  0  0  0  0  0  0  0  0  0
   -7.5583    0.5490    0.0000 N   0  0  0  0  0  0  0  0  0  0  0  0
   -7.5583    2.0490    0.0000 N   0  0  0  0  0  0  0  0  0  0  0  0
   -6.1317    2.5126    0.0000 N   0  0  0  0  0  0  0  0  0  0  0  0
   -5.6682    3.9391    0.0000 C   0  0  0  0  0  0  0  0  0  0  0  0
   -4.2009    4.2510    0.0000 C   0  0  0  0  0  0  0  0  0  0  0  0
   -3.7374    5.6776    0.0000 C   0  0  0  0  0  0  0  0  0  0  0  0
   -4.7411    6.7923    0.0000 C   0  0  0  0  0  0  0  0  0  0  0  0
   -4.2776    8.2189    0.0000 C   0  0  0  0  0  0  0  0  0  0  0  0
   -5.2813    9.3336    0.0000 O   0  0  0  0  0  0  0  0  0  0  0  0
   -2.8104    8.5308    0.0000 N   0  0  0  0  0  0  0  0  0  0  0  0
   -2.3468    9.9574    0.0000 O   0  0  0  0  0  0  0  0  0  0  0  0
   -6.2083    6.4805    0.0000 N   0  0  0  0  0  0  0  0  0  0  0  0
   -6.6718    5.0539    0.0000 C   0  0  0  0  0  0  0  0  0  0  0  0
   -8.1391    4.7420    0.0000 O   0  0  0  0  0  0  0  0  0  0  0  0
   -0.7500    1.2990    0.0000 N   0  0  0  0  0  0  0  0  0  0  0  0
    0.7500    1.2990    0.0000 C   0  0  0  0  0  0  0  0  0  0  0  0
    1.5000    2.5981    0.0000 O   0  0  0  0  0  0  0  0  0  0  0  0
  1  2  1  0
  2  3  1  0
  3  4  2  0
  4  5  1  0
  5  6  2  0
  6  7  1  0
  7  8  2  0
  7  9  1  0
  9 10  1  0
 10 11  2  0
 11 12  1  0
 12 13  2  0
 13 14  1  0
 14 15  1  0
 15 16  2  0
 16 17  1  0
 17 18  2  0
 18 19  1  0
 19 20  2  0
 19 21  1  0
 21 22  1  0
 18 23  1  0
 23 24  1  0
 24 25  2  0
  6 26  1  0
 26 27  1  0
 27 28  2  0
 27  3  1  0
 14 10  1  0
 24 15  1  0
M  END
>  <Title>  (136) 
idAAFFgen7

$$$$

     RDKit          2D

 52 56  0  0  0  0  0  0  0  0999 V2000
    0.7500   -9.0933    0.0000 C   0  0  0  0  0  0  0  0  0  0  0  0
    1.5000   -7.7942    0.0000 C   0  0  0  0  0  0  0  0  0  0  0  0
    3.0000   -7.7942    0.0000 O   0  0  0  0  0  0  0  0  0  0  0  0
    0.7500   -6.4952    0.0000 N   0  0  0  0  0  0  0  0  0  0  0  0
    1.5000   -5.1962    0.0000 C   0  0  0  0  0  0  0  0  0  0  0  0
    3.0000   -5.1962    0.0000 O   0  0  0  0  0  0  0  0  0  0  0  0
    0.7500   -3.8971    0.0000 C   0  0  0  0  0  0  0  0  0  0  0  0
    1.5000   -2.5981    0.0000 C   0  0  0  0  0  0  0  0  0  0  0  0
    0.7500   -1.2990    0.0000 C   0  0  0  0  0  0  0  0  0  0  0  0
    1.5000    0.0000    0.0000 C   0  0  0  0  0  0  0  0  0  0  0  0
    0.7500    1.2990    0.0000 C   0  0  0  0  0  0  0  0  0  0  0  0
   -0.7500    1.2990    0.0000 C   0  0  0  0  0  0  0  0  0  0  0  0
   -1.5000    0.0000    0.0000 C   0  0  0  0  0  0  0  0  0  0  0  0
   -0.7500   -1.2990    0.0000 C   0  0  0  0  0  0  0  0  0  0  0  0
   -0.7500   -3.8971    0.0000 N   0  0  0  0  0  0  0  0  0  0  0  0
   -1.5000   -5.1962    0.0000 C   0  0  0  0  0  0  0  0  0  0  0  0
   -0.7500   -6.4952    0.0000 O   0  0  0  0  0  0  0  0  0  0  0  0
   -3.0000   -5.1962    0.0000 C   0  0  0  0  0  0  0  0  0  0  0  0
   -3.7500   -3.8971    0.0000 C   0  0  0  0  0  0  0  0  0  0  0  0
   -5.2500   -3.8971    0.0000 C   0  0  0  0  0  0  0  0  0  0  0  0
   -6.0000   -2.5981    0.0000 C   0  0  0  0  0  0  0  0  0  0  0  0
   -7.5000   -2.5981    0.0000 C   0  0  0  0  0  0  0  0  0  0  0  0
   -8.2500   -1.2990    0.0000 C   0  0  0  0  0  0  0  0  0  0  0  0
   -9.7500   -1.2990    0.0000 C   0  0  0  0  0  0  0  0  0  0  0  0
  -10.5000    0.0000    0.0000 C   0  0  0  0  0  0  0  0  0  0  0  0
  -12.0000    0.0000    0.0000 C   0  0  0  0  0  0  0  0  0  0  0  0
  -12.7500    1.2990    0.0000 C   0  0  0  0  0  0  0  0  0  0  0  0
  -14.2500    1.2990    0.0000 C   0  0  0  0  0  0  0  0  0  0  0  0
  -15.5490    0.5490    0.0000 N   0  0  0  0  0  0  0  0  0  0  0  0
  -15.5490    2.0490    0.0000 C   0  0  0  0  0  0  0  0  0  0  0  0
  -16.2990    3.3481    0.0000 O   0  0  0  0  0  0  0  0  0  0  0  0
   -3.7500   -6.4952    0.0000 C   0  0  0  0  0  0  0  0  0  0  0  0
   -5.2500   -6.4952    0.0000 C   0  0  0  0  0  0  0  0  0  0  0  0
   -6.0000   -5.1962    0.0000 C   0  0  0  0  0  0  0  0  0  0  0  0
   -7.5000   -5.1962    0.0000 C   0  0  0  0  0  0  0  0  0  0  0  0
   -8.2500   -6.4952    0.0000 C   0  0  0  0  0  0  0  0  0  0  0  0
   -9.7500   -6.4952    0.0000 C   0  0  0  0  0  0  0  0  0  0  0  0
  -10.1634   -7.9371    0.0000 O   0  0  0  0  0  0  0  0  0  0  0  0
  -10.5000   -5.1962    0.0000 N   0  0  0  0  0  0  0  0  0  0  0  0
  -12.0000   -5.1962    0.0000 C   0  0  0  0  0  0  0  0  0  0  0  0
  -12.8817   -3.9826    0.0000 N   0  0  0  0  0  0  0  0  0  0  0  0
  -14.3083   -4.4462    0.0000 C   0  0  0  0  0  0  0  0  0  0  0  0
  -14.3083   -5.9462    0.0000 N   0  0  0  0  0  0  0  0  0  0  0  0
  -12.8817   -6.4097    0.0000 N   0  0  0  0  0  0  0  0  0  0  0  0
  -12.4182   -7.8363    0.0000 C   0  0  0  0  0  0  0  0  0  0  0  0
  -10.9509   -8.1481    0.0000 C   0  0  0  0  0  0  0  0  0  0  0  0
  -10.4874   -9.5747    0.0000 C   0  0  0  0  0  0  0  0  0  0  0  0
  -11.4911  -10.6894    0.0000 C   0  0  0  0  0  0  0  0  0  0  0  0
  -12.9583  -10.3776    0.0000 C   0  0  0  0  0  0  0  0  0  0  0  0
  -13.4218   -8.9510    0.0000 C   0  0  0  0  0  0  0  0  0  0  0  0
   -7.5000   -7.7942    0.0000 C   0  0  0  0  0  0  0  0  0  0  0  0
   -6.0000   -7.7942    0.0000 C   0  0  0  0  0  0  0  0  0  0  0  0
  1  2  1  0
  2  3  2  0
  2  4  1  0
  4  5  1  0
  5  6  2  0
  5  7  1  0
  7  8  1  0
  8  9  1  0
  9 10  2  0
 10 11  1  0
 11 12  2  0
 12 13  1  0
 13 14  2  0
  7 15  1  0
 15 16  1  0
 16 17  2  0
 16 18  1  0
 18 19  1  0
 19 20  2  3
 20 21  1  0
 21 22  2  3
 22 23  1  0
 23 24  2  3
 24 25  1  0
 25 26  2  3
 26 27  1  0
 27 28  2  3
 28 29  1  0
 29 30  1  0
 30 31  2  0
 18 32  1  0
 32 33  1  0
 33 34  2  0
 34 35  1  0
 35 36  2  0
 36 37  1  0
 37 38  2  0
 37 39  1  0
 39 40  1  0
 40 41  2  0
 41 42  1  0
 42 43  2  0
 43 44  1  0
 44 45  1  0
 45 46  2  0
 46 47  1  0
 47 48  2  0
 48 49  1  0
 49 50  2  0
 36 51  1  0
 51 52  2  0
 14  9  1  0
 30 28  1  0
 52 33  1  0
 44 40  1  0
 50 45  1  0
M  END
>  <Title>  (137) 
idAAFGgen7

$$$$

     RDKit          2D

 30 34  0  0  0  0  0  0  0  0999 V2000
    3.0000    0.0000    0.0000 C   0  0  0  0  0  0  0  0  0  0  0  0
    1.5000    0.0000    0.0000 C   0  0  0  0  0  0  0  0  0  0  0  0
    0.7500    1.2990    0.0000 C   0  0  0  0  0  0  0  0  0  0  0  0
   -0.7500    1.2990    0.0000 C   0  0  0  0  0  0  0  0  0  0  0  0
   -1.5000    0.0000    0.0000 C   0  0  0  0  0  0  0  0  0  0  0  0
   -3.0000    0.0000    0.0000 C   0  0  0  0  0  0  0  0  0  0  0  0
   -3.8817   -1.2135    0.0000 N   0  0  0  0  0  0  0  0  0  0  0  0
   -5.3083   -0.7500    0.0000 N   0  0  0  0  0  0  0  0  0  0  0  0
   -5.3083    0.7500    0.0000 N   0  0  0  0  0  0  0  0  0  0  0  0
   -3.8817    1.2135    0.0000 N   0  0  0  0  0  0  0  0  0  0  0  0
   -3.4182    2.6401    0.0000 C   0  0  0  0  0  0  0  0  0  0  0  0
   -1.9509    2.9520    0.0000 C   0  0  0  0  0  0  0  0  0  0  0  0
   -1.4874    4.3786    0.0000 C   0  0  0  0  0  0  0  0  0  0  0  0
   -2.4911    5.4933    0.0000 C   0  0  0  0  0  0  0  0  0  0  0  0
   -2.0276    6.9199    0.0000 C   0  0  0  0  0  0  0  0  0  0  0  0
   -2.9093    8.1334    0.0000 N   0  0  0  0  0  0  0  0  0  0  0  0
   -2.0276    9.3469    0.0000 N   0  0  0  0  0  0  0  0  0  0  0  0
   -0.6010    8.8834    0.0000 N   0  0  0  0  0  0  0  0  0  0  0  0
   -0.6010    7.3834    0.0000 N   0  0  0  0  0  0  0  0  0  0  0  0
    0.6125    6.5017    0.0000 C   0  0  0  0  0  0  0  0  0  0  0  0
    0.4557    5.0099    0.0000 C   0  0  0  0  0  0  0  0  0  0  0  0
    1.6693    4.1283    0.0000 C   0  0  0  0  0  0  0  0  0  0  0  0
    3.0396    4.7384    0.0000 C   0  0  0  0  0  0  0  0  0  0  0  0
    3.1964    6.2301    0.0000 C   0  0  0  0  0  0  0  0  0  0  0  0
    1.9829    7.1118    0.0000 C   0  0  0  0  0  0  0  0  0  0  0  0
   -3.9583    5.1814    0.0000 C   0  0  0  0  0  0  0  0  0  0  0  0
   -4.4218    3.7548    0.0000 C   0  0  0  0  0  0  0  0  0  0  0  0
   -0.7500   -1.2990    0.0000 C   0  0  0  0  0  0  0  0  0  0  0  0
   -1.5000   -2.5981    0.0000 O   0  0  0  0  0  0  0  0  0  0  0  0
    0.7500   -1.2990    0.0000 N   0  0  0  0  0  0  0  0  0  0  0  0
  1  2  1  0
  2  3  2  0
  3  4  1  0
  4  5  2  0
  5  6  1  0
  6  7  2  0
  7  8  1  0
  8  9  2  0
  9 10  1  0
 10 11  1  0
 11 12  2  0
 12 13  1  0
 13 14  2  0
 14 15  1  0
 15 16  2  0
 16 17  1  0
 17 18  2  0
 18 19  1  0
 19 20  1  0
 20 21  2  0
 21 22  1  0
 22 23  2  0
 23 24  1  0
 24 25  2  0
 14 26  1  0
 26 27  1  0
  5 28  1  0
 28 29  2  0
 28 30  1  0
 30  2  1  0
 10  6  1  0
 27 11  1  0
 19 15  1  0
 25 20  1  0
M  END
>  <Title>  (138) 
idAAFHgen7

$$$$

     RDKit          2D

 33 37  0  0  0  0  0  0  0  0999 V2000
    3.0000    0.0000    0.0000 C   0  0  0  0  0  0  0  0  0  0  0  0
    1.5000    0.0000    0.0000 C   0  0  0  0  0  0  0  0  0  0  0  0
    0.7500    1.2990    0.0000 C   0  0  0  0  0  0  0  0  0  0  0  0
   -0.7500    1.2990    0.0000 C   0  0  0  0  0  0  0  0  0  0  0  0
   -1.5000    0.0000    0.0000 C   0  0  0  0  0  0  0  0  0  0  0  0
   -3.0000    0.0000    0.0000 C   0  0  0  0  0  0  0  0  0  0  0  0
   -3.8817   -1.2135    0.0000 N   0  0  0  0  0  0  0  0  0  0  0  0
   -5.3083   -0.7500    0.0000 N   0  0  0  0  0  0  0  0  0  0  0  0
   -5.3083    0.7500    0.0000 N   0  0  0  0  0  0  0  0  0  0  0  0
   -3.8817    1.2135    0.0000 N   0  0  0  0  0  0  0  0  0  0  0  0
   -3.4182    2.6401    0.0000 C   0  0  0  0  0  0  0  0  0  0  0  0
   -1.9509    2.9520    0.0000 C   0  0  0  0  0  0  0  0  0  0  0  0
   -1.4874    4.3786    0.0000 C   0  0  0  0  0  0  0  0  0  0  0  0
   -2.4911    5.4933    0.0000 C   0  0  0  0  0  0  0  0  0  0  0  0
   -2.0276    6.9199    0.0000 C   0  0  0  0  0  0  0  0  0  0  0  0
   -3.0313    8.0346    0.0000 O   0  0  0  0  0  0  0  0  0  0  0  0
   -0.5604    7.2317    0.0000 N   0  0  0  0  0  0  0  0  0  0  0  0
   -0.0968    8.6583    0.0000 C   0  0  0  0  0  0  0  0  0  0  0  0
   -0.9785    9.8718    0.0000 N   0  0  0  0  0  0  0  0  0  0  0  0
   -0.0968   11.0854    0.0000 N   0  0  0  0  0  0  0  0  0  0  0  0
    1.3298   10.6218    0.0000 N   0  0  0  0  0  0  0  0  0  0  0  0
    1.3298    9.1218    0.0000 N   0  0  0  0  0  0  0  0  0  0  0  0
    2.5433    8.2402    0.0000 C   0  0  0  0  0  0  0  0  0  0  0  0
    2.3865    6.7484    0.0000 C   0  0  0  0  0  0  0  0  0  0  0  0
    3.6000    5.8667    0.0000 C   0  0  0  0  0  0  0  0  0  0  0  0
    4.9703    6.4768    0.0000 C   0  0  0  0  0  0  0  0  0  0  0  0
    5.1271    7.9686    0.0000 C   0  0  0  0  0  0  0  0  0  0  0  0
    3.9136    8.8503    0.0000 C   0  0  0  0  0  0  0  0  0  0  0  0
   -3.9583    5.1814    0.0000 C   0  0  0  0  0  0  0  0  0  0  0  0
   -4.4218    3.7548    0.0000 C   0  0  0  0  0  0  0  0  0  0  0  0
   -0.7500   -1.2990    0.0000 C   0  0  0  0  0  0  0  0  0  0  0  0
   -1.5000   -2.5981    0.0000 O   0  0  0  0  0  0  0  0  0  0  0  0
    0.7500   -1.2990    0.0000 N   0  0  0  0  0  0  0  0  0  0  0  0
  1  2  1  0
  2  3  2  0
  3  4  1  0
  4  5  2  0
  5  6  1  0
  6  7  2  0
  7  8  1  0
  8  9  2  0
  9 10  1  0
 10 11  1  0
 11 12  2  0
 12 13  1  0
 13 14  2  0
 14 15  1  0
 15 16  2  0
 15 17  1  0
 17 18  1  0
 18 19  2  0
 19 20  1  0
 20 21  2  0
 21 22  1  0
 22 23  1  0
 23 24  2  0
 24 25  1  0
 25 26  2  0
 26 27  1  0
 27 28  2  0
 14 29  1  0
 29 30  2  0
  5 31  1  0
 31 32  2  0
 31 33  1  0
 33  2  1  0
 10  6  1  0
 30 11  1  0
 22 18  1  0
 28 23  1  0
M  END
>  <Title>  (139) 
idAAFIgen7

$$$$

     RDKit          2D

 25 25  0  0  0  0  0  0  0  0999 V2000
    7.2460    0.0000    0.0000 C   0  0  0  0  0  0  0  0  0  0  0  0
    5.7460    0.0000    0.0000 C   0  0  0  0  0  0  0  0  0  0  0  0
    5.5502   -1.4872    0.0000 C   0  0  0  0  0  0  0  0  0  0  0  0
    4.9762   -2.8730    0.0000 C   0  0  0  0  0  0  0  0  0  0  0  0
    4.0630   -4.0630    0.0000 C   0  0  0  0  0  0  0  0  0  0  0  0
    2.8730   -4.9762    0.0000 C   0  0  0  0  0  0  0  0  0  0  0  0
    1.4872   -5.5502    0.0000 C   0  0  0  0  0  0  0  0  0  0  0  0
   -0.0000   -5.7460    0.0000 C   0  0  0  0  0  0  0  0  0  0  0  0
   -1.4872   -5.5502    0.0000 C   0  0  0  0  0  0  0  0  0  0  0  0
   -2.8730   -4.9762    0.0000 C   0  0  0  0  0  0  0  0  0  0  0  0
   -4.0630   -4.0630    0.0000 C   0  0  0  0  0  0  0  0  0  0  0  0
   -4.9762   -2.8730    0.0000 C   0  0  0  0  0  0  0  0  0  0  0  0
   -5.5502   -1.4872    0.0000 C   0  0  0  0  0  0  0  0  0  0  0  0
   -5.7460    0.0000    0.0000 C   0  0  0  0  0  0  0  0  0  0  0  0
   -5.5502    1.4872    0.0000 C   0  0  0  0  0  0  0  0  0  0  0  0
   -4.9762    2.8730    0.0000 C   0  0  0  0  0  0  0  0  0  0  0  0
   -4.0630    4.0630    0.0000 C   0  0  0  0  0  0  0  0  0  0  0  0
   -2.8730    4.9762    0.0000 C   0  0  0  0  0  0  0  0  0  0  0  0
   -1.4872    5.5502    0.0000 C   0  0  0  0  0  0  0  0  0  0  0  0
    0.0000    5.7460    0.0000 C   0  0  0  0  0  0  0  0  0  0  0  0
    1.4872    5.5502    0.0000 C   0  0  0  0  0  0  0  0  0  0  0  0
    2.8730    4.9762    0.0000 C   0  0  0  0  0  0  0  0  0  0  0  0
    4.0630    4.0630    0.0000 C   0  0  0  0  0  0  0  0  0  0  0  0
    4.9762    2.8730    0.0000 C   0  0  0  0  0  0  0  0  0  0  0  0
    5.5502    1.4872    0.0000 C   0  0  0  0  0  0  0  0  0  0  0  0
  1  2  1  0
  2  3  2  0
  3  4  1  0
  4  5  2  0
  5  6  1  0
  6  7  2  0
  7  8  1  0
  8  9  2  0
  9 10  1  0
 10 11  2  0
 11 12  1  0
 12 13  2  0
 13 14  1  0
 14 15  2  0
 15 16  1  0
 16 17  2  0
 17 18  1  0
 18 19  2  0
 19 20  1  0
 20 21  2  0
 21 22  1  0
 22 23  2  0
 23 24  1  0
 24 25  2  0
 25  2  1  0
M  END
>  <Title>  (140) 
idAAFJgen7

$$$$

     RDKit          2D

 39 44  0  0  0  0  0  0  0  0999 V2000
   -2.5242   -4.8694    0.0000 C   0  0  0  0  0  0  0  0  0  0  0  0
   -1.3515   -3.9342    0.0000 C   0  0  0  0  0  0  0  0  0  0  0  0
   -0.0000   -4.5850    0.0000 C   0  0  0  0  0  0  0  0  0  0  0  0
    1.3515   -3.9342    0.0000 C   0  0  0  0  0  0  0  0  0  0  0  0
    1.6852   -2.4718    0.0000 C   0  0  0  0  0  0  0  0  0  0  0  0
    0.7500   -1.2990    0.0000 C   0  0  0  0  0  0  0  0  0  0  0  0
    1.5000    0.0000    0.0000 C   0  0  0  0  0  0  0  0  0  0  0  0
    0.7500    1.2990    0.0000 C   0  0  0  0  0  0  0  0  0  0  0  0
    1.5000    2.5981    0.0000 C   0  0  0  0  0  0  0  0  0  0  0  0
    0.7500    3.8971    0.0000 O   0  0  0  0  0  0  0  0  0  0  0  0
    3.0000    2.5981    0.0000 N   0  0  0  0  0  0  0  0  0  0  0  0
    3.7500    3.8971    0.0000 C   0  0  0  0  0  0  0  0  0  0  0  0
    3.1399    5.2674    0.0000 N   0  0  0  0  0  0  0  0  0  0  0  0
    4.2546    6.2711    0.0000 N   0  0  0  0  0  0  0  0  0  0  0  0
    5.5537    5.5211    0.0000 N   0  0  0  0  0  0  0  0  0  0  0  0
    5.2418    4.0539    0.0000 N   0  0  0  0  0  0  0  0  0  0  0  0
    6.2455    2.9392    0.0000 C   0  0  0  0  0  0  0  0  0  0  0  0
    5.7820    1.5126    0.0000 C   0  0  0  0  0  0  0  0  0  0  0  0
    6.7856    0.3979    0.0000 C   0  0  0  0  0  0  0  0  0  0  0  0
    8.2529    0.7098    0.0000 C   0  0  0  0  0  0  0  0  0  0  0  0
    9.2566   -0.4050    0.0000 C   0  0  0  0  0  0  0  0  0  0  0  0
    8.7930   -1.8315    0.0000 C   0  0  0  0  0  0  0  0  0  0  0  0
    9.7967   -2.9463    0.0000 C   0  0  0  0  0  0  0  0  0  0  0  0
   11.2640   -2.6344    0.0000 C   0  0  0  0  0  0  0  0  0  0  0  0
   11.7275   -1.2078    0.0000 C   0  0  0  0  0  0  0  0  0  0  0  0
   10.7238   -0.0931    0.0000 C   0  0  0  0  0  0  0  0  0  0  0  0
    8.7164    2.1363    0.0000 C   0  0  0  0  0  0  0  0  0  0  0  0
    7.7127    3.2511    0.0000 C   0  0  0  0  0  0  0  0  0  0  0  0
    8.1762    4.6776    0.0000 C   0  0  0  0  0  0  0  0  0  0  0  0
    9.6434    4.9895    0.0000 C   0  0  0  0  0  0  0  0  0  0  0  0
   10.1070    6.4161    0.0000 C   0  0  0  0  0  0  0  0  0  0  0  0
    9.1033    7.5308    0.0000 C   0  0  0  0  0  0  0  0  0  0  0  0
    7.6361    7.2189    0.0000 C   0  0  0  0  0  0  0  0  0  0  0  0
    7.1725    5.7924    0.0000 C   0  0  0  0  0  0  0  0  0  0  0  0
   -0.7500    1.2990    0.0000 C   0  0  0  0  0  0  0  0  0  0  0  0
   -1.5000    0.0000    0.0000 C   0  0  0  0  0  0  0  0  0  0  0  0
   -0.7500   -1.2990    0.0000 C   0  0  0  0  0  0  0  0  0  0  0  0
   -1.6852   -2.4718    0.0000 C   0  0  0  0  0  0  0  0  0  0  0  0
   -3.1476   -2.1380    0.0000 O   0  0  0  0  0  0  0  0  0  0  0  0
  1  2  2  0
  2  3  1  0
  3  4  2  0
  4  5  1  0
  5  6  1  0
  6  7  2  0
  7  8  1  0
  8  9  1  0
  9 10  2  0
  9 11  1  0
 11 12  1  0
 12 13  2  0
 13 14  1  0
 14 15  2  0
 15 16  1  0
 16 17  1  0
 17 18  2  0
 18 19  1  0
 19 20  2  0
 20 21  1  0
 21 22  2  0
 22 23  1  0
 23 24  2  0
 24 25  1  0
 25 26  2  0
 20 27  1  0
 27 28  2  0
 28 29  1  0
 29 30  2  0
 30 31  1  0
 31 32  2  0
 32 33  1  0
 33 34  2  0
  8 35  2  0
 35 36  1  0
 36 37  2  0
 37 38  1  0
 38 39  2  0
 38  2  1  0
 37  6  1  0
 16 12  1  0
 28 17  1  0
 34 29  1  0
 26 21  1  0
M  END
>  <Title>  (141) 
idAAFKgen7

$$$$

     RDKit          2D

 43 47  0  0  0  0  0  0  0  0999 V2000
    0.7468    6.7987    0.0000 C   0  0  0  0  0  0  0  0  0  0  0  0
   -0.6071    6.1530    0.0000 O   0  0  0  0  0  0  0  0  0  0  0  0
   -0.7248    4.6576    0.0000 C   0  0  0  0  0  0  0  0  0  0  0  0
    0.6118    3.9766    0.0000 C   0  0  0  0  0  0  0  0  0  0  0  0
    1.0753    2.5500    0.0000 C   0  0  0  0  0  0  0  0  0  0  0  0
    0.3943    1.2135    0.0000 C   0  0  0  0  0  0  0  0  0  0  0  0
    1.2760    0.0000    0.0000 C   0  0  0  0  0  0  0  0  0  0  0  0
    0.3943   -1.2135    0.0000 C   0  0  0  0  0  0  0  0  0  0  0  0
   -1.0323   -0.7500    0.0000 C   0  0  0  0  0  0  0  0  0  0  0  0
   -1.0323    0.7500    0.0000 C   0  0  0  0  0  0  0  0  0  0  0  0
   -2.3688    1.4310    0.0000 N   0  0  0  0  0  0  0  0  0  0  0  0
   -2.8323    2.8576    0.0000 C   0  0  0  0  0  0  0  0  0  0  0  0
   -4.3277    2.9753    0.0000 O   0  0  0  0  0  0  0  0  0  0  0  0
   -2.1513    4.1941    0.0000 N   0  0  0  0  0  0  0  0  0  0  0  0
   -3.1255    5.3347    0.0000 C   0  0  0  0  0  0  0  0  0  0  0  0
   -2.6248    6.7487    0.0000 C   0  0  0  0  0  0  0  0  0  0  0  0
   -3.5990    7.8893    0.0000 C   0  0  0  0  0  0  0  0  0  0  0  0
   -3.0983    9.3032    0.0000 C   0  0  0  0  0  0  0  0  0  0  0  0
   -4.0724   10.4438    0.0000 C   0  0  0  0  0  0  0  0  0  0  0  0
   -3.5717   11.8578    0.0000 C   0  0  0  0  0  0  0  0  0  0  0  0
   -4.5459   12.9984    0.0000 C   0  0  0  0  0  0  0  0  0  0  0  0
   -6.0208   12.7250    0.0000 C   0  0  0  0  0  0  0  0  0  0  0  0
   -6.9949   13.8657    0.0000 C   0  0  0  0  0  0  0  0  0  0  0  0
   -8.4698   13.5923    0.0000 O   0  0  0  0  0  0  0  0  0  0  0  0
   -6.4942   15.2796    0.0000 N   0  0  0  0  0  0  0  0  0  0  0  0
   -7.4684   16.4202    0.0000 C   0  0  0  0  0  0  0  0  0  0  0  0
   -8.9638   16.3025    0.0000 N   0  0  0  0  0  0  0  0  0  0  0  0
   -9.5378   17.6884    0.0000 N   0  0  0  0  0  0  0  0  0  0  0  0
   -8.3972   18.6625    0.0000 N   0  0  0  0  0  0  0  0  0  0  0  0
   -7.1182   17.8788    0.0000 N   0  0  0  0  0  0  0  0  0  0  0  0
   -5.7324   18.4528    0.0000 C   0  0  0  0  0  0  0  0  0  0  0  0
   -4.5424   17.5397    0.0000 C   0  0  0  0  0  0  0  0  0  0  0  0
   -3.1566   18.1137    0.0000 C   0  0  0  0  0  0  0  0  0  0  0  0
   -2.9608   19.6009    0.0000 C   0  0  0  0  0  0  0  0  0  0  0  0
   -1.5750   20.1749    0.0000 C   0  0  0  0  0  0  0  0  0  0  0  0
   -1.3792   21.6621    0.0000 O   0  0  0  0  0  0  0  0  0  0  0  0
   -0.3849   19.2617    0.0000 N   0  0  0  0  0  0  0  0  0  0  0  0
    1.0009   19.8358    0.0000 O   0  0  0  0  0  0  0  0  0  0  0  0
   -4.1508   20.5140    0.0000 C   0  0  0  0  0  0  0  0  0  0  0  0
   -5.5366   19.9400    0.0000 C   0  0  0  0  0  0  0  0  0  0  0  0
   -6.5215   11.3111    0.0000 C   0  0  0  0  0  0  0  0  0  0  0  0
   -7.9964   11.0377    0.0000 O   0  0  0  0  0  0  0  0  0  0  0  0
   -5.5473   10.1705    0.0000 N   0  0  0  0  0  0  0  0  0  0  0  0
  1  2  1  0
  2  3  1  0
  3  4  2  0
  4  5  1  0
  5  6  2  0
  6  7  1  0
  7  8  2  0
  8  9  1  0
  9 10  2  0
 10 11  1  0
 11 12  1  0
 12 13  2  0
 12 14  1  0
 14 15  1  0
 15 16  1  0
 16 17  1  0
 17 18  1  0
 18 19  1  0
 19 20  2  0
 20 21  1  0
 21 22  2  0
 22 23  1  0
 23 24  2  0
 23 25  1  0
 25 26  1  0
 26 27  2  0
 27 28  1  0
 28 29  2  0
 29 30  1  0
 30 31  1  0
 31 32  2  0
 32 33  1  0
 33 34  2  0
 34 35  1  0
 35 36  2  0
 35 37  1  0
 37 38  1  0
 34 39  1  0
 39 40  1  0
 22 41  1  0
 41 42  2  0
 41 43  1  0
 14  3  1  0
 43 19  1  0
 10  6  1  0
 30 26  1  0
 40 31  1  0
M  END
>  <Title>  (142) 
idAAFLgen7

$$$$

     RDKit          2D

 13 13  0  0  0  0  0  0  0  0999 V2000
    3.0000   -5.1962    0.0000 C   0  0  0  0  0  0  0  0  0  0  0  0
    3.7500   -3.8971    0.0000 C   0  0  0  0  0  0  0  0  0  0  0  0
    5.2500   -3.8971    0.0000 C   0  0  0  0  0  0  0  0  0  0  0  0
    3.0000   -2.5981    0.0000 C   0  0  0  0  0  0  0  0  0  0  0  0
    3.7500   -1.2990    0.0000 C   0  0  0  0  0  0  0  0  0  0  0  0
    5.2500   -1.2990    0.0000 C   0  0  0  0  0  0  0  0  0  0  0  0
    3.0000    0.0000    0.0000 C   0  0  0  0  0  0  0  0  0  0  0  0
    1.5000    0.0000    0.0000 C   0  0  0  0  0  0  0  0  0  0  0  0
    0.7500   -1.2990    0.0000 C   0  0  0  0  0  0  0  0  0  0  0  0
   -0.7500   -1.2990    0.0000 C   0  0  0  0  0  0  0  0  0  0  0  0
   -1.5000    0.0000    0.0000 C   0  0  0  0  0  0  0  0  0  0  0  0
   -0.7500    1.2990    0.0000 C   0  0  0  0  0  0  0  0  0  0  0  0
    0.7500    1.2990    0.0000 C   0  0  0  0  0  0  0  0  0  0  0  0
  1  2  1  0
  2  3  1  0
  2  4  1  0
  4  5  1  0
  5  6  1  0
  5  7  1  0
  7  8  1  0
  8  9  1  0
  9 10  1  0
 10 11  1  0
 11 12  1  0
 12 13  1  0
 13  8  1  0
M  END
>  <Title>  (143) 
idAAFMgen7

$$$$

     RDKit          2D

 55 62  0  0  0  0  0  0  0  0999 V2000
    3.7500   -1.2990    0.0000 C   0  0  0  0  0  0  0  0  0  0  0  0
    3.0000    0.0000    0.0000 O   0  0  0  0  0  0  0  0  0  0  0  0
    1.5000    0.0000    0.0000 C   0  0  0  0  0  0  0  0  0  0  0  0
    0.7500   -1.2990    0.0000 C   0  0  0  0  0  0  0  0  0  0  0  0
   -0.7500   -1.2990    0.0000 C   0  0  0  0  0  0  0  0  0  0  0  0
   -1.5000    0.0000    0.0000 C   0  0  0  0  0  0  0  0  0  0  0  0
   -3.0000    0.0000    0.0000 C   0  0  0  0  0  0  0  0  0  0  0  0
   -3.7500   -1.2990    0.0000 O   0  0  0  0  0  0  0  0  0  0  0  0
   -3.7500    1.2990    0.0000 N   0  0  0  0  0  0  0  0  0  0  0  0
   -5.2500    1.2990    0.0000 C   0  0  0  0  0  0  0  0  0  0  0  0
   -6.1317    0.0855    0.0000 N   0  0  0  0  0  0  0  0  0  0  0  0
   -7.5583    0.5490    0.0000 N   0  0  0  0  0  0  0  0  0  0  0  0
   -7.5583    2.0490    0.0000 N   0  0  0  0  0  0  0  0  0  0  0  0
   -6.1317    2.5126    0.0000 N   0  0  0  0  0  0  0  0  0  0  0  0
   -5.6682    3.9391    0.0000 C   0  0  0  0  0  0  0  0  0  0  0  0
   -4.2009    4.2510    0.0000 C   0  0  0  0  0  0  0  0  0  0  0  0
   -3.7374    5.6776    0.0000 C   0  0  0  0  0  0  0  0  0  0  0  0
   -4.7411    6.7923    0.0000 C   0  0  0  0  0  0  0  0  0  0  0  0
   -4.2776    8.2189    0.0000 C   0  0  0  0  0  0  0  0  0  0  0  0
   -5.2813    9.3336    0.0000 O   0  0  0  0  0  0  0  0  0  0  0  0
   -2.8104    8.5308    0.0000 N   0  0  0  0  0  0  0  0  0  0  0  0
   -2.3468    9.9574    0.0000 C   0  0  0  0  0  0  0  0  0  0  0  0
   -3.2285   11.1709    0.0000 N   0  0  0  0  0  0  0  0  0  0  0  0
   -2.3468   12.3844    0.0000 N   0  0  0  0  0  0  0  0  0  0  0  0
   -0.9202   11.9209    0.0000 N   0  0  0  0  0  0  0  0  0  0  0  0
   -0.9202   10.4209    0.0000 N   0  0  0  0  0  0  0  0  0  0  0  0
    0.2933    9.5392    0.0000 C   0  0  0  0  0  0  0  0  0  0  0  0
    0.1365    8.0474    0.0000 C   0  0  0  0  0  0  0  0  0  0  0  0
    1.3500    7.1657    0.0000 C   0  0  0  0  0  0  0  0  0  0  0  0
    2.7203    7.7758    0.0000 C   0  0  0  0  0  0  0  0  0  0  0  0
    3.9339    6.8942    0.0000 C   0  0  0  0  0  0  0  0  0  0  0  0
    3.7771    5.4024    0.0000 C   0  0  0  0  0  0  0  0  0  0  0  0
    4.9906    4.5207    0.0000 C   0  0  0  0  0  0  0  0  0  0  0  0
    6.3609    5.1308    0.0000 C   0  0  0  0  0  0  0  0  0  0  0  0
    6.5177    6.6226    0.0000 C   0  0  0  0  0  0  0  0  0  0  0  0
    5.3042    7.5043    0.0000 C   0  0  0  0  0  0  0  0  0  0  0  0
    2.8771    9.2676    0.0000 C   0  0  0  0  0  0  0  0  0  0  0  0
    1.6636   10.1493    0.0000 C   0  0  0  0  0  0  0  0  0  0  0  0
   -6.2083    6.4805    0.0000 C   0  0  0  0  0  0  0  0  0  0  0  0
   -6.6718    5.0539    0.0000 C   0  0  0  0  0  0  0  0  0  0  0  0
   -8.1391    4.7420    0.0000 C   0  0  0  0  0  0  0  0  0  0  0  0
   -9.1428    5.8567    0.0000 C   0  0  0  0  0  0  0  0  0  0  0  0
  -10.6100    5.5448    0.0000 C   0  0  0  0  0  0  0  0  0  0  0  0
  -11.0735    4.1183    0.0000 C   0  0  0  0  0  0  0  0  0  0  0  0
  -12.5407    3.8064    0.0000 C   0  0  0  0  0  0  0  0  0  0  0  0
  -13.5444    4.9211    0.0000 C   0  0  0  0  0  0  0  0  0  0  0  0
  -15.0117    4.6092    0.0000 C   0  0  0  0  0  0  0  0  0  0  0  0
  -15.4752    3.1827    0.0000 C   0  0  0  0  0  0  0  0  0  0  0  0
  -14.4715    2.0679    0.0000 C   0  0  0  0  0  0  0  0  0  0  0  0
  -13.0043    2.3798    0.0000 C   0  0  0  0  0  0  0  0  0  0  0  0
  -10.0698    3.0035    0.0000 C   0  0  0  0  0  0  0  0  0  0  0  0
   -8.6026    3.3154    0.0000 C   0  0  0  0  0  0  0  0  0  0  0  0
   -0.7500    1.2990    0.0000 C   0  0  0  0  0  0  0  0  0  0  0  0
   -1.5000    2.5981    0.0000 O   0  0  0  0  0  0  0  0  0  0  0  0
    0.7500    1.2990    0.0000 N   0  0  0  0  0  0  0  0  0  0  0  0
  1  2  1  0
  2  3  1  0
  3  4  2  0
  4  5  1  0
  5  6  2  0
  6  7  1  0
  7  8  2  0
  7  9  1  0
  9 10  1  0
 10 11  2  0
 11 12  1  0
 12 13  2  0
 13 14  1  0
 14 15  1  0
 15 16  2  0
 16 17  1  0
 17 18  2  0
 18 19  1  0
 19 20  2  0
 19 21  1  0
 21 22  1  0
 22 23  2  0
 23 24  1  0
 24 25  2  0
 25 26  1  0
 26 27  1  0
 27 28  2  0
 28 29  1  0
 29 30  2  0
 30 31  1  0
 31 32  2  0
 32 33  1  0
 33 34  2  0
 34 35  1  0
 35 36  2  0
 30 37  1  0
 37 38  2  0
 18 39  1  0
 39 40  2  0
 40 41  1  0
 41 42  2  0
 42 43  1  0
 43 44  2  0
 44 45  1  0
 45 46  2  0
 46 47  1  0
 47 48  2  0
 48 49  1  0
 49 50  2  0
 44 51  1  0
 51 52  2  0
  6 53  1  0
 53 54  2  0
 53 55  1  0
 55  3  1  0
 14 10  1  0
 40 15  1  0
 52 41  1  0
 26 22  1  0
 38 27  1  0
 50 45  1  0
 36 31  1  0
M  END
>  <Title>  (144) 
idAAFNgen7

$$$$

     RDKit          2D

 26 29  0  0  0  0  0  0  0  0999 V2000
   -4.0035    6.0784    0.0000 C   0  0  0  0  0  0  0  0  0  0  0  0
   -2.5991    5.5513    0.0000 C   0  0  0  0  0  0  0  0  0  0  0  0
   -2.3534    4.0716    0.0000 C   0  0  0  0  0  0  0  0  0  0  0  0
   -0.9491    3.5445    0.0000 C   0  0  0  0  0  0  0  0  0  0  0  0
    0.2096    4.4972    0.0000 C   0  0  0  0  0  0  0  0  0  0  0  0
    1.6139    3.9701    0.0000 C   0  0  0  0  0  0  0  0  0  0  0  0
    2.8658    4.7965    0.0000 N   0  0  0  0  0  0  0  0  0  0  0  0
    4.0385    3.8613    0.0000 N   0  0  0  0  0  0  0  0  0  0  0  0
    3.5115    2.4569    0.0000 N   0  0  0  0  0  0  0  0  0  0  0  0
    2.0130    2.5242    0.0000 N   0  0  0  0  0  0  0  0  0  0  0  0
    1.0777    1.3515    0.0000 C   0  0  0  0  0  0  0  0  0  0  0  0
    1.7286    0.0000    0.0000 C   0  0  0  0  0  0  0  0  0  0  0  0
    1.0777   -1.3515    0.0000 C   0  0  0  0  0  0  0  0  0  0  0  0
   -0.3846   -1.6852    0.0000 C   0  0  0  0  0  0  0  0  0  0  0  0
   -1.5574   -0.7500    0.0000 C   0  0  0  0  0  0  0  0  0  0  0  0
   -2.9088   -1.4008    0.0000 C   0  0  0  0  0  0  0  0  0  0  0  0
   -4.1482   -0.5558    0.0000 C   0  0  0  0  0  0  0  0  0  0  0  0
   -5.4997   -1.2067    0.0000 C   0  0  0  0  0  0  0  0  0  0  0  0
   -5.6118   -2.7025    0.0000 C   0  0  0  0  0  0  0  0  0  0  0  0
   -4.3724   -3.5475    0.0000 C   0  0  0  0  0  0  0  0  0  0  0  0
   -3.0209   -2.8966    0.0000 C   0  0  0  0  0  0  0  0  0  0  0  0
   -1.5574    0.7500    0.0000 C   0  0  0  0  0  0  0  0  0  0  0  0
   -0.3846    1.6852    0.0000 C   0  0  0  0  0  0  0  0  0  0  0  0
   -0.0362    5.9769    0.0000 C   0  0  0  0  0  0  0  0  0  0  0  0
    1.1225    6.9296    0.0000 O   0  0  0  0  0  0  0  0  0  0  0  0
   -1.4405    6.5040    0.0000 N   0  0  0  0  0  0  0  0  0  0  0  0
  1  2  1  0
  2  3  2  0
  3  4  1  0
  4  5  2  0
  5  6  1  0
  6  7  2  0
  7  8  1  0
  8  9  2  0
  9 10  1  0
 10 11  1  0
 11 12  2  0
 12 13  1  0
 13 14  2  0
 14 15  1  0
 15 16  1  0
 16 17  2  0
 17 18  1  0
 18 19  2  0
 19 20  1  0
 20 21  2  0
 15 22  1  0
 22 23  2  0
  5 24  1  0
 24 25  2  0
 24 26  1  0
 26  2  1  0
 10  6  1  0
 23 11  1  0
 21 16  1  0
M  END
>  <Title>  (145) 
idAAFOgen7

$$$$

     RDKit          2D

 36 39  0  0  0  0  0  0  0  0999 V2000
    5.3444    0.0000    0.0000 C   0  0  0  0  0  0  0  0  0  0  0  0
    3.8444    0.0000    0.0000 C   0  0  0  0  0  0  0  0  0  0  0  0
    3.5517   -1.4712    0.0000 C   0  0  0  0  0  0  0  0  0  0  0  0
    2.7184   -2.7184    0.0000 C   0  0  0  0  0  0  0  0  0  0  0  0
    1.4712   -3.5517    0.0000 C   0  0  0  0  0  0  0  0  0  0  0  0
   -0.0000   -3.8444    0.0000 C   0  0  0  0  0  0  0  0  0  0  0  0
   -1.4712   -3.5517    0.0000 C   0  0  0  0  0  0  0  0  0  0  0  0
   -2.7184   -2.7184    0.0000 C   0  0  0  0  0  0  0  0  0  0  0  0
   -3.5517   -1.4712    0.0000 C   0  0  0  0  0  0  0  0  0  0  0  0
   -3.8444    0.0000    0.0000 C   0  0  0  0  0  0  0  0  0  0  0  0
   -3.5517    1.4712    0.0000 C   0  0  0  0  0  0  0  0  0  0  0  0
   -2.7184    2.7184    0.0000 C   0  0  0  0  0  0  0  0  0  0  0  0
   -1.4712    3.5517    0.0000 C   0  0  0  0  0  0  0  0  0  0  0  0
    0.0000    3.8444    0.0000 C   0  0  0  0  0  0  0  0  0  0  0  0
    1.4712    3.5517    0.0000 C   0  0  0  0  0  0  0  0  0  0  0  0
    2.0452    4.9376    0.0000 C   0  0  0  0  0  0  0  0  0  0  0  0
    1.2615    6.2165    0.0000 N   0  0  0  0  0  0  0  0  0  0  0  0
    2.2356    7.3571    0.0000 N   0  0  0  0  0  0  0  0  0  0  0  0
    3.6214    6.7831    0.0000 N   0  0  0  0  0  0  0  0  0  0  0  0
    3.5038    5.2877    0.0000 N   0  0  0  0  0  0  0  0  0  0  0  0
    4.6444    4.3136    0.0000 C   0  0  0  0  0  0  0  0  0  0  0  0
    4.3710    2.8387    0.0000 C   0  0  0  0  0  0  0  0  0  0  0  0
    5.5116    1.8645    0.0000 C   0  0  0  0  0  0  0  0  0  0  0  0
    6.9256    2.3652    0.0000 C   0  0  0  0  0  0  0  0  0  0  0  0
    8.0662    1.3910    0.0000 C   0  0  0  0  0  0  0  0  0  0  0  0
    7.7928   -0.0838    0.0000 C   0  0  0  0  0  0  0  0  0  0  0  0
    8.9334   -1.0580    0.0000 C   0  0  0  0  0  0  0  0  0  0  0  0
   10.3474   -0.5573    0.0000 C   0  0  0  0  0  0  0  0  0  0  0  0
   10.6208    0.9176    0.0000 C   0  0  0  0  0  0  0  0  0  0  0  0
    9.4802    1.8917    0.0000 C   0  0  0  0  0  0  0  0  0  0  0  0
    7.1989    3.8401    0.0000 C   0  0  0  0  0  0  0  0  0  0  0  0
    8.6129    4.3408    0.0000 O   0  0  0  0  0  0  0  0  0  0  0  0
    6.0583    4.8143    0.0000 N   0  0  0  0  0  0  0  0  0  0  0  0
    2.7184    2.7184    0.0000 C   0  0  0  0  0  0  0  0  0  0  0  0
    3.7790    3.7790    0.0000 O   0  0  0  0  0  0  0  0  0  0  0  0
    3.5517    1.4712    0.0000 N   0  0  0  0  0  0  0  0  0  0  0  0
  1  2  1  0
  2  3  2  0
  3  4  1  0
  4  5  2  0
  5  6  1  0
  6  7  2  0
  7  8  1  0
  8  9  2  0
  9 10  1  0
 10 11  2  0
 11 12  1  0
 12 13  2  0
 13 14  1  0
 14 15  2  0
 15 16  1  0
 16 17  2  0
 17 18  1  0
 18 19  2  0
 19 20  1  0
 20 21  1  0
 21 22  2  0
 22 23  1  0
 23 24  2  0
 24 25  1  0
 25 26  2  0
 26 27  1  0
 27 28  2  0
 28 29  1  0
 29 30  2  0
 24 31  1  0
 31 32  2  0
 31 33  1  0
 15 34  1  0
 34 35  2  0
 34 36  1  0
 36  2  1  0
 20 16  1  0
 33 21  1  0
 30 25  1  0
M  END
>  <Title>  (146) 
idAAFPgen7

$$$$

     RDKit          2D

 36 41  0  0  0  0  0  0  0  0999 V2000
    3.7500   -1.2990    0.0000 C   0  0  0  0  0  0  0  0  0  0  0  0
    3.0000    0.0000    0.0000 O   0  0  0  0  0  0  0  0  0  0  0  0
    1.5000    0.0000    0.0000 C   0  0  0  0  0  0  0  0  0  0  0  0
    0.7500   -1.2990    0.0000 C   0  0  0  0  0  0  0  0  0  0  0  0
   -0.7500   -1.2990    0.0000 C   0  0  0  0  0  0  0  0  0  0  0  0
   -1.5000    0.0000    0.0000 C   0  0  0  0  0  0  0  0  0  0  0  0
   -3.0000    0.0000    0.0000 C   0  0  0  0  0  0  0  0  0  0  0  0
   -3.8817   -1.2135    0.0000 N   0  0  0  0  0  0  0  0  0  0  0  0
   -5.3083   -0.7500    0.0000 N   0  0  0  0  0  0  0  0  0  0  0  0
   -5.3083    0.7500    0.0000 N   0  0  0  0  0  0  0  0  0  0  0  0
   -3.8817    1.2135    0.0000 N   0  0  0  0  0  0  0  0  0  0  0  0
   -3.4182    2.6401    0.0000 C   0  0  0  0  0  0  0  0  0  0  0  0
   -1.9509    2.9520    0.0000 C   0  0  0  0  0  0  0  0  0  0  0  0
   -1.4874    4.3786    0.0000 C   0  0  0  0  0  0  0  0  0  0  0  0
   -2.4911    5.4933    0.0000 C   0  0  0  0  0  0  0  0  0  0  0  0
   -2.0276    6.9199    0.0000 C   0  0  0  0  0  0  0  0  0  0  0  0
   -2.9093    8.1334    0.0000 N   0  0  0  0  0  0  0  0  0  0  0  0
   -2.0276    9.3469    0.0000 N   0  0  0  0  0  0  0  0  0  0  0  0
   -0.6010    8.8834    0.0000 N   0  0  0  0  0  0  0  0  0  0  0  0
   -0.6010    7.3834    0.0000 N   0  0  0  0  0  0  0  0  0  0  0  0
    0.6125    6.5017    0.0000 C   0  0  0  0  0  0  0  0  0  0  0  0
    0.4557    5.0099    0.0000 C   0  0  0  0  0  0  0  0  0  0  0  0
    1.6693    4.1283    0.0000 C   0  0  0  0  0  0  0  0  0  0  0  0
    3.0396    4.7384    0.0000 C   0  0  0  0  0  0  0  0  0  0  0  0
    4.2531    3.8567    0.0000 C   0  0  0  0  0  0  0  0  0  0  0  0
    4.0963    2.3649    0.0000 C   0  0  0  0  0  0  0  0  0  0  0  0
    5.3098    1.4832    0.0000 C   0  0  0  0  0  0  0  0  0  0  0  0
    6.6802    2.0933    0.0000 C   0  0  0  0  0  0  0  0  0  0  0  0
    6.8370    3.5851    0.0000 C   0  0  0  0  0  0  0  0  0  0  0  0
    5.6234    4.4668    0.0000 C   0  0  0  0  0  0  0  0  0  0  0  0
    3.1964    6.2301    0.0000 C   0  0  0  0  0  0  0  0  0  0  0  0
    1.9829    7.1118    0.0000 C   0  0  0  0  0  0  0  0  0  0  0  0
   -3.9583    5.1814    0.0000 C   0  0  0  0  0  0  0  0  0  0  0  0
   -4.4218    3.7548    0.0000 C   0  0  0  0  0  0  0  0  0  0  0  0
   -0.7500    1.2990    0.0000 C   0  0  0  0  0  0  0  0  0  0  0  0
    0.7500    1.2990    0.0000 C   0  0  0  0  0  0  0  0  0  0  0  0
  1  2  1  0
  2  3  1  0
  3  4  2  0
  4  5  1  0
  5  6  2  0
  6  7  1  0
  7  8  2  0
  8  9  1  0
  9 10  2  0
 10 11  1  0
 11 12  1  0
 12 13  2  0
 13 14  1  0
 14 15  2  0
 15 16  1  0
 16 17  2  0
 17 18  1  0
 18 19  2  0
 19 20  1  0
 20 21  1  0
 21 22  2  0
 22 23  1  0
 23 24  2  0
 24 25  1  0
 25 26  2  0
 26 27  1  0
 27 28  2  0
 28 29  1  0
 29 30  2  0
 24 31  1  0
 31 32  2  0
 15 33  1  0
 33 34  1  0
  6 35  1  0
 35 36  2  0
 36  3  1  0
 11  7  1  0
 34 12  1  0
 20 16  1  0
 32 21  1  0
 30 25  1  0
M  END
>  <Title>  (147) 
idAAFQgen7

$$$$

     RDKit          2D

 52 60  0  0  0  0  0  0  0  0999 V2000
    8.5683   -1.2295    0.0000 C   0  0  0  0  0  0  0  0  0  0  0  0
    7.5646   -0.1148    0.0000 O   0  0  0  0  0  0  0  0  0  0  0  0
    6.0974   -0.4266    0.0000 C   0  0  0  0  0  0  0  0  0  0  0  0
    4.9826    0.5771    0.0000 C   0  0  0  0  0  0  0  0  0  0  0  0
    3.6836   -0.1729    0.0000 C   0  0  0  0  0  0  0  0  0  0  0  0
    3.9955   -1.6402    0.0000 C   0  0  0  0  0  0  0  0  0  0  0  0
    2.9918   -2.7549    0.0000 C   0  0  0  0  0  0  0  0  0  0  0  0
    3.3037   -4.2221    0.0000 N   0  0  0  0  0  0  0  0  0  0  0  0
    2.0046   -4.9721    0.0000 N   0  0  0  0  0  0  0  0  0  0  0  0
    0.8899   -3.9684    0.0000 N   0  0  0  0  0  0  0  0  0  0  0  0
    1.5000   -2.5981    0.0000 N   0  0  0  0  0  0  0  0  0  0  0  0
    0.7500   -1.2990    0.0000 C   0  0  0  0  0  0  0  0  0  0  0  0
    1.5000    0.0000    0.0000 C   0  0  0  0  0  0  0  0  0  0  0  0
    0.7500    1.2990    0.0000 C   0  0  0  0  0  0  0  0  0  0  0  0
   -0.7500    1.2990    0.0000 C   0  0  0  0  0  0  0  0  0  0  0  0
   -1.5000    2.5981    0.0000 C   0  0  0  0  0  0  0  0  0  0  0  0
   -2.9918    2.7549    0.0000 N   0  0  0  0  0  0  0  0  0  0  0  0
   -3.3037    4.2221    0.0000 N   0  0  0  0  0  0  0  0  0  0  0  0
   -2.0046    4.9721    0.0000 N   0  0  0  0  0  0  0  0  0  0  0  0
   -0.8899    3.9684    0.0000 N   0  0  0  0  0  0  0  0  0  0  0  0
    0.5773    4.2803    0.0000 C   0  0  0  0  0  0  0  0  0  0  0  0
    1.5810    3.1655    0.0000 C   0  0  0  0  0  0  0  0  0  0  0  0
    3.0482    3.4774    0.0000 C   0  0  0  0  0  0  0  0  0  0  0  0
    3.5118    4.9040    0.0000 C   0  0  0  0  0  0  0  0  0  0  0  0
    4.9790    5.2159    0.0000 C   0  0  0  0  0  0  0  0  0  0  0  0
    5.9827    4.1011    0.0000 C   0  0  0  0  0  0  0  0  0  0  0  0
    7.4499    4.4130    0.0000 C   0  0  0  0  0  0  0  0  0  0  0  0
    7.9134    5.8396    0.0000 C   0  0  0  0  0  0  0  0  0  0  0  0
    6.9097    6.9543    0.0000 C   0  0  0  0  0  0  0  0  0  0  0  0
    5.4425    6.6424    0.0000 C   0  0  0  0  0  0  0  0  0  0  0  0
    2.5081    6.0187    0.0000 C   0  0  0  0  0  0  0  0  0  0  0  0
    1.0409    5.7068    0.0000 C   0  0  0  0  0  0  0  0  0  0  0  0
   -1.5000    0.0000    0.0000 C   0  0  0  0  0  0  0  0  0  0  0  0
   -0.7500   -1.2990    0.0000 C   0  0  0  0  0  0  0  0  0  0  0  0
   -1.5000   -2.5981    0.0000 C   0  0  0  0  0  0  0  0  0  0  0  0
   -0.8899   -3.9684    0.0000 C   0  0  0  0  0  0  0  0  0  0  0  0
   -2.0046   -4.9721    0.0000 C   0  0  0  0  0  0  0  0  0  0  0  0
   -3.3037   -4.2221    0.0000 C   0  0  0  0  0  0  0  0  0  0  0  0
   -4.6740   -4.8322    0.0000 C   0  0  0  0  0  0  0  0  0  0  0  0
   -4.9858   -6.2994    0.0000 N   0  0  0  0  0  0  0  0  0  0  0  0
   -6.4776   -6.4562    0.0000 N   0  0  0  0  0  0  0  0  0  0  0  0
   -7.0877   -5.0859    0.0000 N   0  0  0  0  0  0  0  0  0  0  0  0
   -5.9730   -4.0822    0.0000 N   0  0  0  0  0  0  0  0  0  0  0  0
   -6.1298   -2.5904    0.0000 C   0  0  0  0  0  0  0  0  0  0  0  0
   -4.9163   -1.7087    0.0000 C   0  0  0  0  0  0  0  0  0  0  0  0
   -5.0731   -0.2170    0.0000 C   0  0  0  0  0  0  0  0  0  0  0  0
   -6.4434    0.3932    0.0000 C   0  0  0  0  0  0  0  0  0  0  0  0
   -7.6569   -0.4885    0.0000 C   0  0  0  0  0  0  0  0  0  0  0  0
   -7.5001   -1.9803    0.0000 C   0  0  0  0  0  0  0  0  0  0  0  0
   -2.9918   -2.7549    0.0000 C   0  0  0  0  0  0  0  0  0  0  0  0
   -3.9955   -1.6402    0.0000 O   0  0  0  0  0  0  0  0  0  0  0  0
    5.4873   -1.7969    0.0000 C   0  0  0  0  0  0  0  0  0  0  0  0
  1  2  1  0
  2  3  1  0
  3  4  2  0
  4  5  1  0
  5  6  2  0
  6  7  1  0
  7  8  2  0
  8  9  1  0
  9 10  2  0
 10 11  1  0
 11 12  1  0
 12 13  2  0
 13 14  1  0
 14 15  2  0
 15 16  1  0
 16 17  2  0
 17 18  1  0
 18 19  2  0
 19 20  1  0
 20 21  1  0
 21 22  2  0
 22 23  1  0
 23 24  2  0
 24 25  1  0
 25 26  2  0
 26 27  1  0
 27 28  2  0
 28 29  1  0
 29 30  2  0
 24 31  1  0
 31 32  2  0
 15 33  1  0
 33 34  2  0
 34 35  1  0
 35 36  2  0
 36 37  1  0
 37 38  2  0
 38 39  1  0
 39 40  2  0
 40 41  1  0
 41 42  2  0
 42 43  1  0
 43 44  1  0
 44 45  2  0
 45 46  1  0
 46 47  2  0
 47 48  1  0
 48 49  2  0
 38 50  1  0
 50 51  2  0
  6 52  1  0
 52  3  1  0
 11  7  1  0
 34 12  1  0
 50 35  1  0
 20 16  1  0
 32 21  1  0
 43 39  1  0
 49 44  1  0
 30 25  1  0
M  END
>  <Title>  (148) 
idAAFRgen7

$$$$

     RDKit          2D

 11 11  0  0  0  0  0  0  0  0999 V2000
    5.2500   -1.2990    0.0000 C   0  0  0  0  0  0  0  0  0  0  0  0
    3.7500   -1.2990    0.0000 C   0  0  0  0  0  0  0  0  0  0  0  0
    3.0000   -2.5981    0.0000 O   0  0  0  0  0  0  0  0  0  0  0  0
    3.0000    0.0000    0.0000 O   0  0  0  0  0  0  0  0  0  0  0  0
    1.5000    0.0000    0.0000 C   0  0  0  0  0  0  0  0  0  0  0  0
    0.7500   -1.2990    0.0000 C   0  0  0  0  0  0  0  0  0  0  0  0
   -0.7500   -1.2990    0.0000 C   0  0  0  0  0  0  0  0  0  0  0  0
   -1.5000    0.0000    0.0000 C   0  0  0  0  0  0  0  0  0  0  0  0
   -3.0000    0.0000    0.0000 F   0  0  0  0  0  0  0  0  0  0  0  0
   -0.7500    1.2990    0.0000 C   0  0  0  0  0  0  0  0  0  0  0  0
    0.7500    1.2990    0.0000 C   0  0  0  0  0  0  0  0  0  0  0  0
  1  2  1  0
  2  3  2  0
  2  4  1  0
  4  5  1  0
  5  6  2  0
  6  7  1  0
  7  8  2  0
  8  9  1  0
  8 10  1  0
 10 11  2  0
 11  5  1  0
M  END
>  <Title>  (149) 
idAAFSgen7

$$$$

     RDKit          2D

 42 48  0  0  0  0  0  0  0  0999 V2000
  -10.1624    4.2767    0.0000 C   0  0  0  0  0  0  0  0  0  0  0  0
   -8.9488    3.3950    0.0000 C   0  0  0  0  0  0  0  0  0  0  0  0
   -9.1056    1.9033    0.0000 C   0  0  0  0  0  0  0  0  0  0  0  0
   -7.8921    1.0216    0.0000 C   0  0  0  0  0  0  0  0  0  0  0  0
   -6.5218    1.6317    0.0000 C   0  0  0  0  0  0  0  0  0  0  0  0
   -5.3083    0.7500    0.0000 C   0  0  0  0  0  0  0  0  0  0  0  0
   -5.3083   -0.7500    0.0000 N   0  0  0  0  0  0  0  0  0  0  0  0
   -3.8817   -1.2135    0.0000 N   0  0  0  0  0  0  0  0  0  0  0  0
   -3.0000    0.0000    0.0000 N   0  0  0  0  0  0  0  0  0  0  0  0
   -3.8817    1.2135    0.0000 N   0  0  0  0  0  0  0  0  0  0  0  0
   -3.4182    2.6401    0.0000 C   0  0  0  0  0  0  0  0  0  0  0  0
   -4.2998    3.8536    0.0000 C   0  0  0  0  0  0  0  0  0  0  0  0
   -3.4182    5.0672    0.0000 C   0  0  0  0  0  0  0  0  0  0  0  0
   -1.9916    4.6036    0.0000 C   0  0  0  0  0  0  0  0  0  0  0  0
   -0.7780    5.4853    0.0000 C   0  0  0  0  0  0  0  0  0  0  0  0
   -0.7780    6.9853    0.0000 N   0  0  0  0  0  0  0  0  0  0  0  0
    0.6485    7.4488    0.0000 N   0  0  0  0  0  0  0  0  0  0  0  0
    1.5302    6.2353    0.0000 N   0  0  0  0  0  0  0  0  0  0  0  0
    0.6485    5.0218    0.0000 N   0  0  0  0  0  0  0  0  0  0  0  0
    1.1121    3.5952    0.0000 C   0  0  0  0  0  0  0  0  0  0  0  0
    0.1084    2.4805    0.0000 C   0  0  0  0  0  0  0  0  0  0  0  0
    0.5719    1.0539    0.0000 C   0  0  0  0  0  0  0  0  0  0  0  0
    2.0391    0.7420    0.0000 C   0  0  0  0  0  0  0  0  0  0  0  0
    2.5026   -0.6846    0.0000 C   0  0  0  0  0  0  0  0  0  0  0  0
    1.4989   -1.7993    0.0000 C   0  0  0  0  0  0  0  0  0  0  0  0
    1.9625   -3.2259    0.0000 C   0  0  0  0  0  0  0  0  0  0  0  0
    3.4297   -3.5377    0.0000 C   0  0  0  0  0  0  0  0  0  0  0  0
    4.4334   -2.4230    0.0000 C   0  0  0  0  0  0  0  0  0  0  0  0
    3.9699   -0.9964    0.0000 C   0  0  0  0  0  0  0  0  0  0  0  0
    3.0428    1.8568    0.0000 C   0  0  0  0  0  0  0  0  0  0  0  0
    2.5793    3.2833    0.0000 C   0  0  0  0  0  0  0  0  0  0  0  0
    3.5830    4.3981    0.0000 C   0  0  0  0  0  0  0  0  0  0  0  0
    5.0502    4.0862    0.0000 C   0  0  0  0  0  0  0  0  0  0  0  0
    6.0539    5.2009    0.0000 N   0  0  0  0  0  0  0  0  0  0  0  0
    5.5904    6.6275    0.0000 N   0  0  0  0  0  0  0  0  0  0  0  0
    4.1232    6.9394    0.0000 N   0  0  0  0  0  0  0  0  0  0  0  0
    3.1195    5.8246    0.0000 N   0  0  0  0  0  0  0  0  0  0  0  0
   -1.9916    3.1036    0.0000 C   0  0  0  0  0  0  0  0  0  0  0  0
   -0.7780    2.2220    0.0000 O   0  0  0  0  0  0  0  0  0  0  0  0
   -6.3650    3.1235    0.0000 N   0  0  0  0  0  0  0  0  0  0  0  0
   -7.5785    4.0051    0.0000 C   0  0  0  0  0  0  0  0  0  0  0  0
   -7.4217    5.4969    0.0000 O   0  0  0  0  0  0  0  0  0  0  0  0
  1  2  1  0
  2  3  2  0
  3  4  1  0
  4  5  2  0
  5  6  1  0
  6  7  2  0
  7  8  1  0
  8  9  2  0
  9 10  1  0
 10 11  1  0
 11 12  2  0
 12 13  1  0
 13 14  2  0
 14 15  1  0
 15 16  2  0
 16 17  1  0
 17 18  2  0
 18 19  1  0
 19 20  1  0
 20 21  2  0
 21 22  1  0
 22 23  2  0
 23 24  1  0
 24 25  2  0
 25 26  1  0
 26 27  2  0
 27 28  1  0
 28 29  2  0
 23 30  1  0
 30 31  2  0
 31 32  1  0
 32 33  2  0
 33 34  1  0
 34 35  2  0
 35 36  1  0
 36 37  2  0
 14 38  1  0
 38 39  2  0
  5 40  1  0
 40 41  1  0
 41 42  2  0
 41  2  1  0
 10  6  1  0
 38 11  1  0
 19 15  1  0
 31 20  1  0
 37 32  1  0
 29 24  1  0
M  END
>  <Title>  (150) 
idAAFTgen7

$$$$

     RDKit          2D

 36 40  0  0  0  0  0  0  0  0999 V2000
    3.0000    0.0000    0.0000 C   0  0  0  0  0  0  0  0  0  0  0  0
    1.5000    0.0000    0.0000 C   0  0  0  0  0  0  0  0  0  0  0  0
    0.7500   -1.2990    0.0000 C   0  0  0  0  0  0  0  0  0  0  0  0
   -0.7500   -1.2990    0.0000 C   0  0  0  0  0  0  0  0  0  0  0  0
   -1.5000    0.0000    0.0000 C   0  0  0  0  0  0  0  0  0  0  0  0
   -3.0000    0.0000    0.0000 C   0  0  0  0  0  0  0  0  0  0  0  0
   -3.7500   -1.2990    0.0000 O   0  0  0  0  0  0  0  0  0  0  0  0
   -3.7500    1.2990    0.0000 N   0  0  0  0  0  0  0  0  0  0  0  0
   -5.2500    1.2990    0.0000 C   0  0  0  0  0  0  0  0  0  0  0  0
   -6.1317    0.0855    0.0000 N   0  0  0  0  0  0  0  0  0  0  0  0
   -7.5583    0.5490    0.0000 N   0  0  0  0  0  0  0  0  0  0  0  0
   -7.5583    2.0490    0.0000 N   0  0  0  0  0  0  0  0  0  0  0  0
   -6.1317    2.5126    0.0000 N   0  0  0  0  0  0  0  0  0  0  0  0
   -5.6682    3.9391    0.0000 C   0  0  0  0  0  0  0  0  0  0  0  0
   -4.2009    4.2510    0.0000 C   0  0  0  0  0  0  0  0  0  0  0  0
   -3.7374    5.6776    0.0000 C   0  0  0  0  0  0  0  0  0  0  0  0
   -4.7411    6.7923    0.0000 C   0  0  0  0  0  0  0  0  0  0  0  0
   -4.2776    8.2189    0.0000 N   0  0  0  0  0  0  0  0  0  0  0  0
   -2.8104    8.5308    0.0000 C   0  0  0  0  0  0  0  0  0  0  0  0
   -1.8067    7.4161    0.0000 O   0  0  0  0  0  0  0  0  0  0  0  0
   -2.3468    9.9574    0.0000 C   0  0  0  0  0  0  0  0  0  0  0  0
   -0.8796   10.2692    0.0000 C   0  0  0  0  0  0  0  0  0  0  0  0
   -0.4161   11.6958    0.0000 C   0  0  0  0  0  0  0  0  0  0  0  0
   -1.4198   12.8105    0.0000 C   0  0  0  0  0  0  0  0  0  0  0  0
   -0.9563   14.2371    0.0000 C   0  0  0  0  0  0  0  0  0  0  0  0
    0.5110   14.5490    0.0000 C   0  0  0  0  0  0  0  0  0  0  0  0
    0.9745   15.9756    0.0000 C   0  0  0  0  0  0  0  0  0  0  0  0
   -0.0292   17.0903    0.0000 C   0  0  0  0  0  0  0  0  0  0  0  0
   -1.4964   16.7784    0.0000 C   0  0  0  0  0  0  0  0  0  0  0  0
   -1.9599   15.3518    0.0000 C   0  0  0  0  0  0  0  0  0  0  0  0
   -2.8870   12.4987    0.0000 C   0  0  0  0  0  0  0  0  0  0  0  0
   -3.3505   11.0721    0.0000 C   0  0  0  0  0  0  0  0  0  0  0  0
   -6.2083    6.4805    0.0000 C   0  0  0  0  0  0  0  0  0  0  0  0
   -6.6718    5.0539    0.0000 C   0  0  0  0  0  0  0  0  0  0  0  0
   -0.7500    1.2990    0.0000 C   0  0  0  0  0  0  0  0  0  0  0  0
    0.7500    1.2990    0.0000 C   0  0  0  0  0  0  0  0  0  0  0  0
  1  2  1  0
  2  3  2  0
  3  4  1  0
  4  5  2  0
  5  6  1  0
  6  7  2  0
  6  8  1  0
  8  9  1  0
  9 10  2  0
 10 11  1  0
 11 12  2  0
 12 13  1  0
 13 14  1  0
 14 15  2  0
 15 16  1  0
 16 17  2  0
 17 18  1  0
 18 19  1  0
 19 20  2  0
 19 21  1  0
 21 22  2  0
 22 23  1  0
 23 24  2  0
 24 25  1  0
 25 26  2  0
 26 27  1  0
 27 28  2  0
 28 29  1  0
 29 30  2  0
 24 31  1  0
 31 32  2  0
 17 33  1  0
 33 34  2  0
  5 35  1  0
 35 36  2  0
 36  2  1  0
 13  9  1  0
 34 14  1  0
 32 21  1  0
 30 25  1  0
M  END
>  <Title>  (151) 
idAAFUgen7

$$$$

     RDKit          2D

 40 45  0  0  0  0  0  0  0  0999 V2000
    3.0000    0.0000    0.0000 C   0  0  0  0  0  0  0  0  0  0  0  0
    1.5000    0.0000    0.0000 C   0  0  0  0  0  0  0  0  0  0  0  0
    0.7500    1.2990    0.0000 C   0  0  0  0  0  0  0  0  0  0  0  0
   -0.7500    1.2990    0.0000 C   0  0  0  0  0  0  0  0  0  0  0  0
   -1.5000    0.0000    0.0000 C   0  0  0  0  0  0  0  0  0  0  0  0
   -3.0000    0.0000    0.0000 C   0  0  0  0  0  0  0  0  0  0  0  0
   -3.8817   -1.2135    0.0000 C   0  0  0  0  0  0  0  0  0  0  0  0
   -5.3083   -0.7500    0.0000 N   0  0  0  0  0  0  0  0  0  0  0  0
   -5.3083    0.7500    0.0000 N   0  0  0  0  0  0  0  0  0  0  0  0
   -3.8817    1.2135    0.0000 N   0  0  0  0  0  0  0  0  0  0  0  0
   -3.4182    2.6401    0.0000 C   0  0  0  0  0  0  0  0  0  0  0  0
   -1.9509    2.9520    0.0000 C   0  0  0  0  0  0  0  0  0  0  0  0
   -1.4874    4.3786    0.0000 C   0  0  0  0  0  0  0  0  0  0  0  0
   -2.4911    5.4933    0.0000 C   0  0  0  0  0  0  0  0  0  0  0  0
   -2.0276    6.9199    0.0000 C   0  0  0  0  0  0  0  0  0  0  0  0
   -2.9093    8.1334    0.0000 N   0  0  0  0  0  0  0  0  0  0  0  0
   -2.0276    9.3469    0.0000 N   0  0  0  0  0  0  0  0  0  0  0  0
   -0.6010    8.8834    0.0000 N   0  0  0  0  0  0  0  0  0  0  0  0
   -0.6010    7.3834    0.0000 N   0  0  0  0  0  0  0  0  0  0  0  0
    0.6125    6.5017    0.0000 C   0  0  0  0  0  0  0  0  0  0  0  0
    0.4557    5.0099    0.0000 C   0  0  0  0  0  0  0  0  0  0  0  0
    1.6693    4.1283    0.0000 C   0  0  0  0  0  0  0  0  0  0  0  0
    3.0396    4.7384    0.0000 C   0  0  0  0  0  0  0  0  0  0  0  0
    3.1964    6.2301    0.0000 C   0  0  0  0  0  0  0  0  0  0  0  0
    1.9829    7.1118    0.0000 C   0  0  0  0  0  0  0  0  0  0  0  0
   -3.9583    5.1814    0.0000 C   0  0  0  0  0  0  0  0  0  0  0  0
   -4.4218    3.7548    0.0000 C   0  0  0  0  0  0  0  0  0  0  0  0
   -5.8891    3.4430    0.0000 C   0  0  0  0  0  0  0  0  0  0  0  0
   -6.8928    4.5577    0.0000 C   0  0  0  0  0  0  0  0  0  0  0  0
   -8.3600    4.2458    0.0000 C   0  0  0  0  0  0  0  0  0  0  0  0
   -8.8235    2.8192    0.0000 C   0  0  0  0  0  0  0  0  0  0  0  0
  -10.2907    2.5074    0.0000 C   0  0  0  0  0  0  0  0  0  0  0  0
  -10.7543    1.0808    0.0000 O   0  0  0  0  0  0  0  0  0  0  0  0
  -11.2944    3.6221    0.0000 N   0  0  0  0  0  0  0  0  0  0  0  0
  -12.7617    3.3102    0.0000 O   0  0  0  0  0  0  0  0  0  0  0  0
   -7.8198    1.7045    0.0000 C   0  0  0  0  0  0  0  0  0  0  0  0
   -6.3526    2.0164    0.0000 C   0  0  0  0  0  0  0  0  0  0  0  0
   -0.7500   -1.2990    0.0000 C   0  0  0  0  0  0  0  0  0  0  0  0
   -1.5000   -2.5981    0.0000 O   0  0  0  0  0  0  0  0  0  0  0  0
    0.7500   -1.2990    0.0000 N   0  0  0  0  0  0  0  0  0  0  0  0
  1  2  1  0
  2  3  2  0
  3  4  1  0
  4  5  2  0
  5  6  1  0
  6  7  2  0
  7  8  1  0
  8  9  2  0
  9 10  1  0
 10 11  1  0
 11 12  2  0
 12 13  1  0
 13 14  2  0
 14 15  1  0
 15 16  2  0
 16 17  1  0
 17 18  2  0
 18 19  1  0
 19 20  1  0
 20 21  2  0
 21 22  1  0
 22 23  2  0
 23 24  1  0
 24 25  2  0
 14 26  1  0
 26 27  2  0
 27 28  1  0
 28 29  2  0
 29 30  1  0
 30 31  2  0
 31 32  1  0
 32 33  2  0
 32 34  1  0
 34 35  1  0
 31 36  1  0
 36 37  1  0
  5 38  1  0
 38 39  2  0
 38 40  1  0
 40  2  1  0
 10  6  1  0
 27 11  1  0
 37 28  1  0
 19 15  1  0
 25 20  1  0
M  END
>  <Title>  (152) 
idAAFVgen7

$$$$

     RDKit          2D

 40 45  0  0  0  0  0  0  0  0999 V2000
    3.0000    0.0000    0.0000 C   0  0  0  0  0  0  0  0  0  0  0  0
    1.5000    0.0000    0.0000 C   0  0  0  0  0  0  0  0  0  0  0  0
    0.7500   -1.2990    0.0000 C   0  0  0  0  0  0  0  0  0  0  0  0
   -0.7500   -1.2990    0.0000 C   0  0  0  0  0  0  0  0  0  0  0  0
   -1.5000    0.0000    0.0000 C   0  0  0  0  0  0  0  0  0  0  0  0
   -3.0000    0.0000    0.0000 C   0  0  0  0  0  0  0  0  0  0  0  0
   -3.8817   -1.2135    0.0000 N   0  0  0  0  0  0  0  0  0  0  0  0
   -5.3083   -0.7500    0.0000 N   0  0  0  0  0  0  0  0  0  0  0  0
   -5.3083    0.7500    0.0000 N   0  0  0  0  0  0  0  0  0  0  0  0
   -3.8817    1.2135    0.0000 N   0  0  0  0  0  0  0  0  0  0  0  0
   -3.4182    2.6401    0.0000 C   0  0  0  0  0  0  0  0  0  0  0  0
   -1.9509    2.9520    0.0000 C   0  0  0  0  0  0  0  0  0  0  0  0
   -1.4874    4.3786    0.0000 C   0  0  0  0  0  0  0  0  0  0  0  0
   -2.4911    5.4933    0.0000 C   0  0  0  0  0  0  0  0  0  0  0  0
   -2.0276    6.9199    0.0000 C   0  0  0  0  0  0  0  0  0  0  0  0
   -3.0313    8.0346    0.0000 O   0  0  0  0  0  0  0  0  0  0  0  0
   -0.5604    7.2317    0.0000 N   0  0  0  0  0  0  0  0  0  0  0  0
   -0.0968    8.6583    0.0000 C   0  0  0  0  0  0  0  0  0  0  0  0
   -0.9785    9.8718    0.0000 N   0  0  0  0  0  0  0  0  0  0  0  0
   -0.0968   11.0854    0.0000 C   0  0  0  0  0  0  0  0  0  0  0  0
    1.3298   10.6218    0.0000 N   0  0  0  0  0  0  0  0  0  0  0  0
    1.3298    9.1218    0.0000 N   0  0  0  0  0  0  0  0  0  0  0  0
    2.5433    8.2402    0.0000 C   0  0  0  0  0  0  0  0  0  0  0  0
    2.3865    6.7484    0.0000 C   0  0  0  0  0  0  0  0  0  0  0  0
    3.6000    5.8667    0.0000 C   0  0  0  0  0  0  0  0  0  0  0  0
    4.9703    6.4768    0.0000 C   0  0  0  0  0  0  0  0  0  0  0  0
    5.1271    7.9686    0.0000 C   0  0  0  0  0  0  0  0  0  0  0  0
    3.9136    8.8503    0.0000 C   0  0  0  0  0  0  0  0  0  0  0  0
   -3.9583    5.1814    0.0000 C   0  0  0  0  0  0  0  0  0  0  0  0
   -4.4218    3.7548    0.0000 C   0  0  0  0  0  0  0  0  0  0  0  0
   -5.8891    3.4430    0.0000 C   0  0  0  0  0  0  0  0  0  0  0  0
   -6.8928    4.5577    0.0000 C   0  0  0  0  0  0  0  0  0  0  0  0
   -8.3600    4.2458    0.0000 C   0  0  0  0  0  0  0  0  0  0  0  0
   -8.8235    2.8192    0.0000 C   0  0  0  0  0  0  0  0  0  0  0  0
  -10.2907    2.5074    0.0000 C   0  0  0  0  0  0  0  0  0  0  0  0
   -7.8198    1.7045    0.0000 C   0  0  0  0  0  0  0  0  0  0  0  0
   -8.2833    0.2779    0.0000 O   0  0  0  0  0  0  0  0  0  0  0  0
   -6.3526    2.0164    0.0000 N   0  0  0  0  0  0  0  0  0  0  0  0
   -0.7500    1.2990    0.0000 N   0  0  0  0  0  0  0  0  0  0  0  0
    0.7500    1.2990    0.0000 C   0  0  0  0  0  0  0  0  0  0  0  0
  1  2  1  0
  2  3  2  0
  3  4  1  0
  4  5  2  0
  5  6  1  0
  6  7  2  0
  7  8  1  0
  8  9  2  0
  9 10  1  0
 10 11  1  0
 11 12  2  0
 12 13  1  0
 13 14  2  0
 14 15  1  0
 15 16  2  0
 15 17  1  0
 17 18  1  0
 18 19  2  0
 19 20  1  0
 20 21  2  0
 21 22  1  0
 22 23  1  0
 23 24  2  0
 24 25  1  0
 25 26  2  0
 26 27  1  0
 27 28  2  0
 14 29  1  0
 29 30  2  0
 30 31  1  0
 31 32  2  0
 32 33  1  0
 33 34  2  0
 34 35  1  0
 34 36  1  0
 36 37  2  0
 36 38  1  0
  5 39  1  0
 39 40  2  0
 40  2  1  0
 10  6  1  0
 30 11  1  0
 38 31  1  0
 22 18  1  0
 28 23  1  0
M  END
>  <Title>  (153) 
idAAFWgen7

$$$$

     RDKit          2D

 29 31  0  0  0  0  0  0  0  0999 V2000
    5.2500   -1.2990    0.0000 C   0  0  0  0  0  0  0  0  0  0  0  0
    3.7500   -1.2990    0.0000 C   0  0  0  0  0  0  0  0  0  0  0  0
    3.0000   -2.5981    0.0000 O   0  0  0  0  0  0  0  0  0  0  0  0
    3.0000    0.0000    0.0000 N   0  0  0  0  0  0  0  0  0  0  0  0
    1.5000    0.0000    0.0000 C   0  0  0  0  0  0  0  0  0  0  0  0
    0.7500   -1.2990    0.0000 C   0  0  0  0  0  0  0  0  0  0  0  0
   -0.7500   -1.2990    0.0000 C   0  0  0  0  0  0  0  0  0  0  0  0
   -1.5000    0.0000    0.0000 C   0  0  0  0  0  0  0  0  0  0  0  0
   -3.0000    0.0000    0.0000 C   0  0  0  0  0  0  0  0  0  0  0  0
   -3.7500   -1.2990    0.0000 O   0  0  0  0  0  0  0  0  0  0  0  0
   -3.7500    1.2990    0.0000 N   0  0  0  0  0  0  0  0  0  0  0  0
   -5.2500    1.2990    0.0000 C   0  0  0  0  0  0  0  0  0  0  0  0
   -6.1317    0.0855    0.0000 N   0  0  0  0  0  0  0  0  0  0  0  0
   -7.5583    0.5490    0.0000 N   0  0  0  0  0  0  0  0  0  0  0  0
   -7.5583    2.0490    0.0000 N   0  0  0  0  0  0  0  0  0  0  0  0
   -6.1317    2.5126    0.0000 N   0  0  0  0  0  0  0  0  0  0  0  0
   -5.6682    3.9391    0.0000 C   0  0  0  0  0  0  0  0  0  0  0  0
   -4.2009    4.2510    0.0000 C   0  0  0  0  0  0  0  0  0  0  0  0
   -3.7374    5.6776    0.0000 C   0  0  0  0  0  0  0  0  0  0  0  0
   -4.7411    6.7923    0.0000 C   0  0  0  0  0  0  0  0  0  0  0  0
   -4.2776    8.2189    0.0000 C   0  0  0  0  0  0  0  0  0  0  0  0
   -5.2813    9.3336    0.0000 O   0  0  0  0  0  0  0  0  0  0  0  0
   -2.8104    8.5308    0.0000 N   0  0  0  0  0  0  0  0  0  0  0  0
   -2.3468    9.9574    0.0000 O   0  0  0  0  0  0  0  0  0  0  0  0
   -6.2083    6.4805    0.0000 C   0  0  0  0  0  0  0  0  0  0  0  0
   -6.6718    5.0539    0.0000 C   0  0  0  0  0  0  0  0  0  0  0  0
   -0.7500    1.2990    0.0000 C   0  0  0  0  0  0  0  0  0  0  0  0
   -1.5000    2.5981    0.0000 O   0  0  0  0  0  0  0  0  0  0  0  0
    0.7500    1.2990    0.0000 O   0  0  0  0  0  0  0  0  0  0  0  0
  1  2  1  0
  2  3  2  0
  2  4  1  0
  4  5  1  0
  5  6  2  0
  6  7  1  0
  7  8  2  0
  8  9  1  0
  9 10  2  0
  9 11  1  0
 11 12  1  0
 12 13  2  0
 13 14  1  0
 14 15  2  0
 15 16  1  0
 16 17  1  0
 17 18  2  0
 18 19  1  0
 19 20  2  0
 20 21  1  0
 21 22  2  0
 21 23  1  0
 23 24  1  0
 20 25  1  0
 25 26  1  0
  8 27  1  0
 27 28  2  0
 27 29  1  0
 29  5  1  0
 16 12  1  0
 26 17  1  0
M  END
>  <Title>  (154) 
idAAFXgen7

$$$$

     RDKit          2D

 30 30  0  0  0  0  0  0  0  0999 V2000
    8.1986    0.0000    0.0000 C   0  0  0  0  0  0  0  0  0  0  0  0
    6.6986    0.0000    0.0000 C   0  0  0  0  0  0  0  0  0  0  0  0
    6.5306   -1.4906    0.0000 C   0  0  0  0  0  0  0  0  0  0  0  0
    6.0352   -2.9064    0.0000 C   0  0  0  0  0  0  0  0  0  0  0  0
    5.2371   -4.1765    0.0000 C   0  0  0  0  0  0  0  0  0  0  0  0
    4.1765   -5.2371    0.0000 C   0  0  0  0  0  0  0  0  0  0  0  0
    2.9064   -6.0352    0.0000 C   0  0  0  0  0  0  0  0  0  0  0  0
    1.4906   -6.5306    0.0000 C   0  0  0  0  0  0  0  0  0  0  0  0
   -0.0000   -6.6986    0.0000 C   0  0  0  0  0  0  0  0  0  0  0  0
   -1.4906   -6.5306    0.0000 C   0  0  0  0  0  0  0  0  0  0  0  0
   -2.9064   -6.0352    0.0000 C   0  0  0  0  0  0  0  0  0  0  0  0
   -4.1765   -5.2371    0.0000 C   0  0  0  0  0  0  0  0  0  0  0  0
   -5.2371   -4.1765    0.0000 C   0  0  0  0  0  0  0  0  0  0  0  0
   -6.0352   -2.9064    0.0000 C   0  0  0  0  0  0  0  0  0  0  0  0
   -6.5306   -1.4906    0.0000 C   0  0  0  0  0  0  0  0  0  0  0  0
   -6.6986    0.0000    0.0000 C   0  0  0  0  0  0  0  0  0  0  0  0
   -6.5306    1.4906    0.0000 C   0  0  0  0  0  0  0  0  0  0  0  0
   -6.0352    2.9064    0.0000 C   0  0  0  0  0  0  0  0  0  0  0  0
   -5.2371    4.1765    0.0000 C   0  0  0  0  0  0  0  0  0  0  0  0
   -4.1765    5.2371    0.0000 C   0  0  0  0  0  0  0  0  0  0  0  0
   -2.9064    6.0352    0.0000 C   0  0  0  0  0  0  0  0  0  0  0  0
   -1.4906    6.5306    0.0000 C   0  0  0  0  0  0  0  0  0  0  0  0
    0.0000    6.6986    0.0000 C   0  0  0  0  0  0  0  0  0  0  0  0
    1.4906    6.5306    0.0000 C   0  0  0  0  0  0  0  0  0  0  0  0
    2.9064    6.0352    0.0000 C   0  0  0  0  0  0  0  0  0  0  0  0
    4.1765    5.2371    0.0000 C   0  0  0  0  0  0  0  0  0  0  0  0
    5.2371    4.1765    0.0000 C   0  0  0  0  0  0  0  0  0  0  0  0
    6.0352    2.9064    0.0000 C   0  0  0  0  0  0  0  0  0  0  0  0
    7.3866    3.5572    0.0000 C   0  0  0  0  0  0  0  0  0  0  0  0
    6.5306    1.4906    0.0000 C   0  0  0  0  0  0  0  0  0  0  0  0
  1  2  1  0
  2  3  2  0
  3  4  1  0
  4  5  2  0
  5  6  1  0
  6  7  2  0
  7  8  1  0
  8  9  2  0
  9 10  1  0
 10 11  2  0
 11 12  1  0
 12 13  2  0
 13 14  1  0
 14 15  2  0
 15 16  1  0
 16 17  2  0
 17 18  1  0
 18 19  2  0
 19 20  1  0
 20 21  2  0
 21 22  1  0
 22 23  2  0
 23 24  1  0
 24 25  2  0
 25 26  1  0
 26 27  1  0
 27 28  1  0
 28 29  1  0
 28 30  1  0
 30  2  1  0
M  END
>  <Title>  (155) 
idAAFYgen7

$$$$

     RDKit          2D

 52 59  0  0  0  0  0  0  0  0999 V2000
    3.0000    0.0000    0.0000 C   0  0  0  0  0  0  0  0  0  0  0  0
    1.5000    0.0000    0.0000 C   0  0  0  0  0  0  0  0  0  0  0  0
    0.7500   -1.2990    0.0000 C   0  0  0  0  0  0  0  0  0  0  0  0
   -0.7500   -1.2990    0.0000 C   0  0  0  0  0  0  0  0  0  0  0  0
   -1.5000    0.0000    0.0000 C   0  0  0  0  0  0  0  0  0  0  0  0
   -3.0000    0.0000    0.0000 C   0  0  0  0  0  0  0  0  0  0  0  0
   -3.7500   -1.2990    0.0000 O   0  0  0  0  0  0  0  0  0  0  0  0
   -3.7500    1.2990    0.0000 N   0  0  0  0  0  0  0  0  0  0  0  0
   -5.2500    1.2990    0.0000 C   0  0  0  0  0  0  0  0  0  0  0  0
   -6.1317    0.0855    0.0000 N   0  0  0  0  0  0  0  0  0  0  0  0
   -7.5583    0.5490    0.0000 N   0  0  0  0  0  0  0  0  0  0  0  0
   -7.5583    2.0490    0.0000 N   0  0  0  0  0  0  0  0  0  0  0  0
   -6.1317    2.5126    0.0000 N   0  0  0  0  0  0  0  0  0  0  0  0
   -5.6682    3.9391    0.0000 C   0  0  0  0  0  0  0  0  0  0  0  0
   -4.2009    4.2510    0.0000 C   0  0  0  0  0  0  0  0  0  0  0  0
   -3.7374    5.6776    0.0000 C   0  0  0  0  0  0  0  0  0  0  0  0
   -4.7411    6.7923    0.0000 C   0  0  0  0  0  0  0  0  0  0  0  0
   -4.2776    8.2189    0.0000 C   0  0  0  0  0  0  0  0  0  0  0  0
   -5.1593    9.4324    0.0000 N   0  0  0  0  0  0  0  0  0  0  0  0
   -4.2776   10.6460    0.0000 N   0  0  0  0  0  0  0  0  0  0  0  0
   -2.8510   10.1824    0.0000 N   0  0  0  0  0  0  0  0  0  0  0  0
   -2.8510    8.6824    0.0000 N   0  0  0  0  0  0  0  0  0  0  0  0
   -1.6375    7.8008    0.0000 C   0  0  0  0  0  0  0  0  0  0  0  0
   -1.7943    6.3090    0.0000 C   0  0  0  0  0  0  0  0  0  0  0  0
   -0.5807    5.4273    0.0000 C   0  0  0  0  0  0  0  0  0  0  0  0
    0.7896    6.0374    0.0000 C   0  0  0  0  0  0  0  0  0  0  0  0
    2.0031    5.1557    0.0000 C   0  0  0  0  0  0  0  0  0  0  0  0
    1.8463    3.6639    0.0000 C   0  0  0  0  0  0  0  0  0  0  0  0
    3.0598    2.7823    0.0000 C   0  0  0  0  0  0  0  0  0  0  0  0
    4.4302    3.3924    0.0000 C   0  0  0  0  0  0  0  0  0  0  0  0
    4.5870    4.8841    0.0000 C   0  0  0  0  0  0  0  0  0  0  0  0
    3.3734    5.7658    0.0000 C   0  0  0  0  0  0  0  0  0  0  0  0
    0.9464    7.5292    0.0000 C   0  0  0  0  0  0  0  0  0  0  0  0
   -0.2671    8.4109    0.0000 C   0  0  0  0  0  0  0  0  0  0  0  0
   -6.2083    6.4805    0.0000 C   0  0  0  0  0  0  0  0  0  0  0  0
   -6.6718    5.0539    0.0000 C   0  0  0  0  0  0  0  0  0  0  0  0
   -8.1391    4.7420    0.0000 N   0  0  0  0  0  0  0  0  0  0  0  0
   -8.6026    3.3154    0.0000 N   0  0  0  0  0  0  0  0  0  0  0  0
  -10.0698    3.0035    0.0000 N   0  0  0  0  0  0  0  0  0  0  0  0
  -11.0735    4.1183    0.0000 N   0  0  0  0  0  0  0  0  0  0  0  0
  -10.6100    5.5448    0.0000 N   0  0  0  0  0  0  0  0  0  0  0  0
   -9.1428    5.8567    0.0000 N   0  0  0  0  0  0  0  0  0  0  0  0
   -8.6792    7.2833    0.0000 C   0  0  0  0  0  0  0  0  0  0  0  0
   -7.2120    7.5952    0.0000 C   0  0  0  0  0  0  0  0  0  0  0  0
   -6.7485    9.0218    0.0000 C   0  0  0  0  0  0  0  0  0  0  0  0
   -7.7522   10.1365    0.0000 C   0  0  0  0  0  0  0  0  0  0  0  0
   -7.2887   11.5631    0.0000 C   0  0  0  0  0  0  0  0  0  0  0  0
   -9.2194    9.8246    0.0000 C   0  0  0  0  0  0  0  0  0  0  0  0
  -10.2231   10.9393    0.0000 O   0  0  0  0  0  0  0  0  0  0  0  0
   -9.6829    8.3980    0.0000 N   0  0  0  0  0  0  0  0  0  0  0  0
   -0.7500    1.2990    0.0000 N   0  0  0  0  0  0  0  0  0  0  0  0
    0.7500    1.2990    0.0000 C   0  0  0  0  0  0  0  0  0  0  0  0
  1  2  1  0
  2  3  2  0
  3  4  1  0
  4  5  2  0
  5  6  1  0
  6  7  2  0
  6  8  1  0
  8  9  1  0
  9 10  2  0
 10 11  1  0
 11 12  2  0
 12 13  1  0
 13 14  1  0
 14 15  2  0
 15 16  1  0
 16 17  2  0
 17 18  1  0
 18 19  2  0
 19 20  1  0
 20 21  2  0
 21 22  1  0
 22 23  1  0
 23 24  2  0
 24 25  1  0
 25 26  2  0
 26 27  1  0
 27 28  2  0
 28 29  1  0
 29 30  2  0
 30 31  1  0
 31 32  2  0
 26 33  1  0
 33 34  2  0
 17 35  1  0
 35 36  2  0
 36 37  1  0
 37 38  1  0
 38 39  2  0
 39 40  1  0
 40 41  2  0
 41 42  1  0
 42 43  1  0
 43 44  2  0
 44 45  1  0
 45 46  2  0
 46 47  1  0
 46 48  1  0
 48 49  2  0
 48 50  1  0
  5 51  1  0
 51 52  1  0
 52  2  1  0
 13  9  1  0
 36 14  1  0
 42 37  1  0
 50 43  1  0
 22 18  1  0
 34 23  1  0
 32 27  1  0
M  END
>  <Title>  (156) 
idAAFZgen7

$$$$

     RDKit          2D

 11 12  0  0  0  0  0  0  0  0999 V2000
   -2.6380    5.6918    0.0000 C   0  0  0  0  0  0  0  0  0  0  0  0
   -2.9499    4.2246    0.0000 O   0  0  0  0  0  0  0  0  0  0  0  0
   -1.8351    3.2209    0.0000 C   0  0  0  0  0  0  0  0  0  0  0  0
   -0.4086    3.6844    0.0000 C   0  0  0  0  0  0  0  0  0  0  0  0
    0.7062    2.6807    0.0000 C   0  0  0  0  0  0  0  0  0  0  0  0
    0.3943    1.2135    0.0000 C   0  0  0  0  0  0  0  0  0  0  0  0
    1.2760    0.0000    0.0000 C   0  0  0  0  0  0  0  0  0  0  0  0
    0.3943   -1.2135    0.0000 C   0  0  0  0  0  0  0  0  0  0  0  0
   -1.0323   -0.7500    0.0000 C   0  0  0  0  0  0  0  0  0  0  0  0
   -1.0323    0.7500    0.0000 C   0  0  0  0  0  0  0  0  0  0  0  0
   -2.1470    1.7537    0.0000 N   0  0  0  0  0  0  0  0  0  0  0  0
  1  2  1  0
  2  3  1  0
  3  4  2  0
  4  5  1  0
  5  6  2  0
  6  7  1  0
  7  8  2  0
  8  9  1  0
  9 10  2  0
 10 11  1  0
 11  3  1  0
 10  6  1  0
M  END
>  <Title>  (157) 
idAAGAgen7

$$$$

     RDKit          2D

 13 13  0  0  0  0  0  0  0  0999 V2000
    4.9121   -1.2990    0.0000 C   0  0  0  0  0  0  0  0  0  0  0  0
    4.1621    0.0000    0.0000 O   0  0  0  0  0  0  0  0  0  0  0  0
    2.6621    0.0000    0.0000 C   0  0  0  0  0  0  0  0  0  0  0  0
    2.2395    1.4392    0.0000 C   0  0  0  0  0  0  0  0  0  0  0  0
    1.1059    2.4215    0.0000 C   0  0  0  0  0  0  0  0  0  0  0  0
   -0.3789    2.6350    0.0000 C   0  0  0  0  0  0  0  0  0  0  0  0
   -1.7433    2.0119    0.0000 C   0  0  0  0  0  0  0  0  0  0  0  0
   -2.5543    0.7500    0.0000 C   0  0  0  0  0  0  0  0  0  0  0  0
   -2.5543   -0.7500    0.0000 C   0  0  0  0  0  0  0  0  0  0  0  0
   -1.7433   -2.0119    0.0000 C   0  0  0  0  0  0  0  0  0  0  0  0
   -0.3789   -2.6350    0.0000 C   0  0  0  0  0  0  0  0  0  0  0  0
    1.1059   -2.4215    0.0000 C   0  0  0  0  0  0  0  0  0  0  0  0
    2.2395   -1.4392    0.0000 C   0  0  0  0  0  0  0  0  0  0  0  0
  1  2  1  0
  2  3  1  0
  3  4  1  0
  4  5  1  0
  5  6  1  0
  6  7  1  0
  7  8  1  0
  8  9  1  0
  9 10  1  0
 10 11  1  0
 11 12  1  0
 12 13  1  0
 13  3  1  0
M  END
>  <Title>  (158) 
idAAGBgen7

$$$$

     RDKit          2D

 21 21  0  0  0  0  0  0  0  0999 V2000
    6.2943    0.0000    0.0000 C   0  0  0  0  0  0  0  0  0  0  0  0
    4.7943    0.0000    0.0000 C   0  0  0  0  0  0  0  0  0  0  0  0
    4.5597   -1.4815    0.0000 C   0  0  0  0  0  0  0  0  0  0  0  0
    3.8787   -2.8180    0.0000 C   0  0  0  0  0  0  0  0  0  0  0  0
    2.8180   -3.8787    0.0000 C   0  0  0  0  0  0  0  0  0  0  0  0
    1.4815   -4.5597    0.0000 C   0  0  0  0  0  0  0  0  0  0  0  0
   -0.0000   -4.7943    0.0000 C   0  0  0  0  0  0  0  0  0  0  0  0
   -1.4815   -4.5597    0.0000 C   0  0  0  0  0  0  0  0  0  0  0  0
   -2.8180   -3.8787    0.0000 C   0  0  0  0  0  0  0  0  0  0  0  0
   -3.8787   -2.8180    0.0000 C   0  0  0  0  0  0  0  0  0  0  0  0
   -4.5597   -1.4815    0.0000 C   0  0  0  0  0  0  0  0  0  0  0  0
   -4.7943    0.0000    0.0000 C   0  0  0  0  0  0  0  0  0  0  0  0
   -4.5597    1.4815    0.0000 C   0  0  0  0  0  0  0  0  0  0  0  0
   -3.8787    2.8180    0.0000 C   0  0  0  0  0  0  0  0  0  0  0  0
   -2.8180    3.8787    0.0000 C   0  0  0  0  0  0  0  0  0  0  0  0
   -1.4815    4.5597    0.0000 C   0  0  0  0  0  0  0  0  0  0  0  0
    0.0000    4.7943    0.0000 C   0  0  0  0  0  0  0  0  0  0  0  0
    1.4815    4.5597    0.0000 C   0  0  0  0  0  0  0  0  0  0  0  0
    2.8180    3.8787    0.0000 C   0  0  0  0  0  0  0  0  0  0  0  0
    3.8787    2.8180    0.0000 C   0  0  0  0  0  0  0  0  0  0  0  0
    4.5597    1.4815    0.0000 N   0  0  0  0  0  0  0  0  0  0  0  0
  1  2  1  0
  2  3  2  0
  3  4  1  0
  4  5  2  0
  5  6  1  0
  6  7  2  0
  7  8  1  0
  8  9  2  0
  9 10  1  0
 10 11  2  0
 11 12  1  0
 12 13  2  0
 13 14  1  0
 14 15  2  0
 15 16  1  0
 16 17  2  0
 17 18  1  0
 18 19  2  0
 19 20  1  0
 20 21  1  0
 21  2  1  0
M  END
>  <Title>  (159) 
idAAGCgen7

$$$$

     RDKit          2D

 29 31  0  0  0  0  0  0  0  0999 V2000
    5.2500   -1.2990    0.0000 C   0  0  0  0  0  0  0  0  0  0  0  0
    3.7500   -1.2990    0.0000 C   0  0  0  0  0  0  0  0  0  0  0  0
    3.0000   -2.5981    0.0000 O   0  0  0  0  0  0  0  0  0  0  0  0
    3.0000    0.0000    0.0000 O   0  0  0  0  0  0  0  0  0  0  0  0
    1.5000    0.0000    0.0000 C   0  0  0  0  0  0  0  0  0  0  0  0
    0.7500   -1.2990    0.0000 C   0  0  0  0  0  0  0  0  0  0  0  0
   -0.7500   -1.2990    0.0000 C   0  0  0  0  0  0  0  0  0  0  0  0
   -1.5000    0.0000    0.0000 C   0  0  0  0  0  0  0  0  0  0  0  0
   -3.0000    0.0000    0.0000 C   0  0  0  0  0  0  0  0  0  0  0  0
   -3.7500   -1.2990    0.0000 O   0  0  0  0  0  0  0  0  0  0  0  0
   -3.7500    1.2990    0.0000 N   0  0  0  0  0  0  0  0  0  0  0  0
   -5.2500    1.2990    0.0000 C   0  0  0  0  0  0  0  0  0  0  0  0
   -6.1317    0.0855    0.0000 N   0  0  0  0  0  0  0  0  0  0  0  0
   -7.5583    0.5490    0.0000 N   0  0  0  0  0  0  0  0  0  0  0  0
   -7.5583    2.0490    0.0000 N   0  0  0  0  0  0  0  0  0  0  0  0
   -6.1317    2.5126    0.0000 N   0  0  0  0  0  0  0  0  0  0  0  0
   -5.6682    3.9391    0.0000 C   0  0  0  0  0  0  0  0  0  0  0  0
   -4.2009    4.2510    0.0000 C   0  0  0  0  0  0  0  0  0  0  0  0
   -3.7374    5.6776    0.0000 C   0  0  0  0  0  0  0  0  0  0  0  0
   -4.7411    6.7923    0.0000 C   0  0  0  0  0  0  0  0  0  0  0  0
   -4.2776    8.2189    0.0000 C   0  0  0  0  0  0  0  0  0  0  0  0
   -5.2813    9.3336    0.0000 O   0  0  0  0  0  0  0  0  0  0  0  0
   -2.8104    8.5308    0.0000 N   0  0  0  0  0  0  0  0  0  0  0  0
   -2.3468    9.9574    0.0000 O   0  0  0  0  0  0  0  0  0  0  0  0
   -6.2083    6.4805    0.0000 C   0  0  0  0  0  0  0  0  0  0  0  0
   -6.6718    5.0539    0.0000 C   0  0  0  0  0  0  0  0  0  0  0  0
   -0.7500    1.2990    0.0000 C   0  0  0  0  0  0  0  0  0  0  0  0
   -1.5000    2.5981    0.0000 O   0  0  0  0  0  0  0  0  0  0  0  0
    0.7500    1.2990    0.0000 N   0  0  0  0  0  0  0  0  0  0  0  0
  1  2  1  0
  2  3  2  0
  2  4  1  0
  4  5  1  0
  5  6  2  0
  6  7  1  0
  7  8  2  0
  8  9  1  0
  9 10  2  0
  9 11  1  0
 11 12  1  0
 12 13  2  0
 13 14  1  0
 14 15  2  0
 15 16  1  0
 16 17  1  0
 17 18  2  0
 18 19  1  0
 19 20  2  0
 20 21  1  0
 21 22  2  0
 21 23  1  0
 23 24  1  0
 20 25  1  0
 25 26  1  0
  8 27  1  0
 27 28  2  0
 27 29  1  0
 29  5  1  0
 16 12  1  0
 26 17  1  0
M  END
>  <Title>  (160) 
idAAGDgen7

$$$$

     RDKit          2D

 37 42  0  0  0  0  0  0  0  0999 V2000
    3.0000    0.0000    0.0000 C   0  0  0  0  0  0  0  0  0  0  0  0
    1.5000    0.0000    0.0000 C   0  0  0  0  0  0  0  0  0  0  0  0
    0.7500   -1.2990    0.0000 C   0  0  0  0  0  0  0  0  0  0  0  0
   -0.7500   -1.2990    0.0000 C   0  0  0  0  0  0  0  0  0  0  0  0
   -1.5000    0.0000    0.0000 C   0  0  0  0  0  0  0  0  0  0  0  0
   -3.0000    0.0000    0.0000 C   0  0  0  0  0  0  0  0  0  0  0  0
   -3.8817   -1.2135    0.0000 N   0  0  0  0  0  0  0  0  0  0  0  0
   -5.3083   -0.7500    0.0000 N   0  0  0  0  0  0  0  0  0  0  0  0
   -5.3083    0.7500    0.0000 N   0  0  0  0  0  0  0  0  0  0  0  0
   -3.8817    1.2135    0.0000 N   0  0  0  0  0  0  0  0  0  0  0  0
   -3.4182    2.6401    0.0000 C   0  0  0  0  0  0  0  0  0  0  0  0
   -1.9509    2.9520    0.0000 C   0  0  0  0  0  0  0  0  0  0  0  0
   -1.4874    4.3786    0.0000 C   0  0  0  0  0  0  0  0  0  0  0  0
   -2.4911    5.4933    0.0000 C   0  0  0  0  0  0  0  0  0  0  0  0
   -2.0276    6.9199    0.0000 C   0  0  0  0  0  0  0  0  0  0  0  0
   -3.0313    8.0346    0.0000 O   0  0  0  0  0  0  0  0  0  0  0  0
   -0.5604    7.2317    0.0000 N   0  0  0  0  0  0  0  0  0  0  0  0
   -0.0968    8.6583    0.0000 C   0  0  0  0  0  0  0  0  0  0  0  0
   -0.9785    9.8718    0.0000 N   0  0  0  0  0  0  0  0  0  0  0  0
   -0.0968   11.0854    0.0000 N   0  0  0  0  0  0  0  0  0  0  0  0
    1.3298   10.6218    0.0000 N   0  0  0  0  0  0  0  0  0  0  0  0
    1.3298    9.1218    0.0000 N   0  0  0  0  0  0  0  0  0  0  0  0
    2.5433    8.2402    0.0000 C   0  0  0  0  0  0  0  0  0  0  0  0
    2.5433    6.7402    0.0000 N   0  0  0  0  0  0  0  0  0  0  0  0
    3.9699    6.2766    0.0000 N   0  0  0  0  0  0  0  0  0  0  0  0
    4.8515    7.4902    0.0000 N   0  0  0  0  0  0  0  0  0  0  0  0
    3.9699    8.7037    0.0000 N   0  0  0  0  0  0  0  0  0  0  0  0
    4.4334   10.1303    0.0000 C   0  0  0  0  0  0  0  0  0  0  0  0
    3.4297   11.2450    0.0000 C   0  0  0  0  0  0  0  0  0  0  0  0
    3.8932   12.6716    0.0000 C   0  0  0  0  0  0  0  0  0  0  0  0
    5.3604   12.9834    0.0000 C   0  0  0  0  0  0  0  0  0  0  0  0
    6.3641   11.8687    0.0000 C   0  0  0  0  0  0  0  0  0  0  0  0
    5.9006   10.4421    0.0000 C   0  0  0  0  0  0  0  0  0  0  0  0
   -3.9583    5.1814    0.0000 C   0  0  0  0  0  0  0  0  0  0  0  0
   -4.4218    3.7548    0.0000 C   0  0  0  0  0  0  0  0  0  0  0  0
   -0.7500    1.2990    0.0000 C   0  0  0  0  0  0  0  0  0  0  0  0
    0.7500    1.2990    0.0000 C   0  0  0  0  0  0  0  0  0  0  0  0
  1  2  1  0
  2  3  2  0
  3  4  1  0
  4  5  2  0
  5  6  1  0
  6  7  2  0
  7  8  1  0
  8  9  2  0
  9 10  1  0
 10 11  1  0
 11 12  2  0
 12 13  1  0
 13 14  2  0
 14 15  1  0
 15 16  2  0
 15 17  1  0
 17 18  1  0
 18 19  2  0
 19 20  1  0
 20 21  2  0
 21 22  1  0
 22 23  1  0
 23 24  2  0
 24 25  1  0
 25 26  2  0
 26 27  1  0
 27 28  1  0
 28 29  2  0
 29 30  1  0
 30 31  2  0
 31 32  1  0
 32 33  2  0
 14 34  1  0
 34 35  2  0
  5 36  1  0
 36 37  1  0
 37  2  1  0
 10  6  1  0
 35 11  1  0
 22 18  1  0
 27 23  1  0
 33 28  1  0
M  END
>  <Title>  (161) 
idAAGEgen7

$$$$

     RDKit          2D

  6  6  0  0  0  0  0  0  0  0999 V2000
    2.7760    0.0000    0.0000 O   0  0  0  0  0  0  0  0  0  0  0  0
    1.2760    0.0000    0.0000 C   0  0  0  0  0  0  0  0  0  0  0  0
    0.3943    1.2135    0.0000 C   0  0  0  0  0  0  0  0  0  0  0  0
   -1.0323    0.7500    0.0000 C   0  0  0  0  0  0  0  0  0  0  0  0
   -1.0323   -0.7500    0.0000 C   0  0  0  0  0  0  0  0  0  0  0  0
    0.3943   -1.2135    0.0000 C   0  0  0  0  0  0  0  0  0  0  0  0
  1  2  2  0
  2  3  1  0
  3  4  1  0
  4  5  1  0
  5  6  1  0
  6  2  1  0
M  END
>  <Title>  (162) 
idAAGFgen7

$$$$

     RDKit          2D

 20 21  0  0  0  0  0  0  0  0999 V2000
    9.9772    0.0101    0.0000 C   0  0  0  0  0  0  0  0  0  0  0  0
    8.4940    0.2336    0.0000 C   0  0  0  0  0  0  0  0  0  0  0  0
    7.5587   -0.9391    0.0000 O   0  0  0  0  0  0  0  0  0  0  0  0
    7.9460    1.6299    0.0000 O   0  0  0  0  0  0  0  0  0  0  0  0
    6.4627    1.8535    0.0000 C   0  0  0  0  0  0  0  0  0  0  0  0
    5.5275    0.6808    0.0000 C   0  0  0  0  0  0  0  0  0  0  0  0
    4.0442    0.9043    0.0000 C   0  0  0  0  0  0  0  0  0  0  0  0
    3.4962    2.3006    0.0000 C   0  0  0  0  0  0  0  0  0  0  0  0
    2.0130    2.5242    0.0000 C   0  0  0  0  0  0  0  0  0  0  0  0
    1.4650    3.9205    0.0000 O   0  0  0  0  0  0  0  0  0  0  0  0
    1.0777    1.3515    0.0000 N   0  0  0  0  0  0  0  0  0  0  0  0
    1.7286    0.0000    0.0000 C   0  0  0  0  0  0  0  0  0  0  0  0
    1.0777   -1.3515    0.0000 C   0  0  0  0  0  0  0  0  0  0  0  0
   -0.3846   -1.6852    0.0000 C   0  0  0  0  0  0  0  0  0  0  0  0
   -1.5574   -0.7500    0.0000 C   0  0  0  0  0  0  0  0  0  0  0  0
   -1.5574    0.7500    0.0000 C   0  0  0  0  0  0  0  0  0  0  0  0
   -0.3846    1.6852    0.0000 C   0  0  0  0  0  0  0  0  0  0  0  0
    4.4315    3.4734    0.0000 C   0  0  0  0  0  0  0  0  0  0  0  0
    5.9147    3.2498    0.0000 C   0  0  0  0  0  0  0  0  0  0  0  0
    6.8499    4.4226    0.0000 C   0  0  0  0  0  0  0  0  0  0  0  0
  1  2  1  0
  2  3  2  0
  2  4  1  0
  4  5  1  0
  5  6  2  0
  6  7  1  0
  7  8  2  0
  8  9  1  0
  9 10  2  0
  9 11  1  0
 11 12  1  0
 12 13  2  0
 13 14  1  0
 14 15  2  0
 15 16  1  0
 16 17  2  0
  8 18  1  0
 18 19  2  0
 19 20  1  0
 19  5  1  0
 17 11  1  0
M  END
>  <Title>  (163) 
idAAGGgen7

$$$$

     RDKit          2D

 41 46  0  0  0  0  0  0  0  0999 V2000
    6.3019    5.8189    0.0000 C   0  0  0  0  0  0  0  0  0  0  0  0
    4.8187    6.0424    0.0000 O   0  0  0  0  0  0  0  0  0  0  0  0
    3.8835    4.8697    0.0000 C   0  0  0  0  0  0  0  0  0  0  0  0
    4.4315    3.4734    0.0000 C   0  0  0  0  0  0  0  0  0  0  0  0
    3.4962    2.3006    0.0000 C   0  0  0  0  0  0  0  0  0  0  0  0
    2.0130    2.5242    0.0000 C   0  0  0  0  0  0  0  0  0  0  0  0
    1.0777    1.3515    0.0000 C   0  0  0  0  0  0  0  0  0  0  0  0
    1.7286    0.0000    0.0000 C   0  0  0  0  0  0  0  0  0  0  0  0
    1.0777   -1.3515    0.0000 C   0  0  0  0  0  0  0  0  0  0  0  0
   -0.3846   -1.6852    0.0000 C   0  0  0  0  0  0  0  0  0  0  0  0
   -1.5574   -0.7500    0.0000 C   0  0  0  0  0  0  0  0  0  0  0  0
   -2.9088   -1.4008    0.0000 C   0  0  0  0  0  0  0  0  0  0  0  0
   -3.0209   -2.8966    0.0000 O   0  0  0  0  0  0  0  0  0  0  0  0
   -4.1482   -0.5558    0.0000 N   0  0  0  0  0  0  0  0  0  0  0  0
   -5.4997   -1.2067    0.0000 C   0  0  0  0  0  0  0  0  0  0  0  0
   -6.7390   -0.3617    0.0000 C   0  0  0  0  0  0  0  0  0  0  0  0
   -8.0905   -1.0125    0.0000 C   0  0  0  0  0  0  0  0  0  0  0  0
   -8.2026   -2.5083    0.0000 C   0  0  0  0  0  0  0  0  0  0  0  0
   -6.9632   -3.3533    0.0000 C   0  0  0  0  0  0  0  0  0  0  0  0
   -5.6118   -2.7025    0.0000 C   0  0  0  0  0  0  0  0  0  0  0  0
   -1.5574    0.7500    0.0000 C   0  0  0  0  0  0  0  0  0  0  0  0
   -0.3846    1.6852    0.0000 C   0  0  0  0  0  0  0  0  0  0  0  0
   -0.7184    3.1476    0.0000 C   0  0  0  0  0  0  0  0  0  0  0  0
    0.3812    4.1679    0.0000 C   0  0  0  0  0  0  0  0  0  0  0  0
    0.0474    5.6303    0.0000 C   0  0  0  0  0  0  0  0  0  0  0  0
   -1.3860    6.0724    0.0000 C   0  0  0  0  0  0  0  0  0  0  0  0
   -1.7198    7.5348    0.0000 C   0  0  0  0  0  0  0  0  0  0  0  0
   -3.0991    8.1243    0.0000 N   0  0  0  0  0  0  0  0  0  0  0  0
   -2.9646    9.6183    0.0000 N   0  0  0  0  0  0  0  0  0  0  0  0
   -1.5022    9.9521    0.0000 N   0  0  0  0  0  0  0  0  0  0  0  0
   -0.7329    8.6644    0.0000 N   0  0  0  0  0  0  0  0  0  0  0  0
    0.7611    8.5300    0.0000 C   0  0  0  0  0  0  0  0  0  0  0  0
    1.3916    7.1689    0.0000 C   0  0  0  0  0  0  0  0  0  0  0  0
    2.8856    7.0345    0.0000 C   0  0  0  0  0  0  0  0  0  0  0  0
    3.7490    8.2610    0.0000 C   0  0  0  0  0  0  0  0  0  0  0  0
    3.1185    9.6221    0.0000 C   0  0  0  0  0  0  0  0  0  0  0  0
    1.6245    9.7565    0.0000 C   0  0  0  0  0  0  0  0  0  0  0  0
   -2.4856    5.0522    0.0000 C   0  0  0  0  0  0  0  0  0  0  0  0
   -2.1518    3.5898    0.0000 C   0  0  0  0  0  0  0  0  0  0  0  0
    1.4650    3.9205    0.0000 C   0  0  0  0  0  0  0  0  0  0  0  0
    2.4002    5.0933    0.0000 C   0  0  0  0  0  0  0  0  0  0  0  0
  1  2  1  0
  2  3  1  0
  3  4  2  0
  4  5  1  0
  5  6  2  0
  6  7  1  0
  7  8  1  0
  8  9  2  0
  9 10  1  0
 10 11  2  0
 11 12  1  0
 12 13  2  0
 12 14  1  0
 14 15  1  0
 15 16  2  0
 16 17  1  0
 17 18  2  0
 18 19  1  0
 19 20  2  0
 11 21  1  0
 21 22  2  0
 22 23  1  0
 23 24  2  0
 24 25  1  0
 25 26  2  0
 26 27  1  0
 27 28  2  0
 28 29  1  0
 29 30  2  0
 30 31  1  0
 31 32  1  0
 32 33  2  0
 33 34  1  0
 34 35  2  0
 35 36  1  0
 36 37  2  0
 26 38  1  0
 38 39  2  0
  6 40  1  0
 40 41  2  0
 41  3  1  0
 22  7  1  0
 39 23  1  0
 20 15  1  0
 31 27  1  0
 37 32  1  0
M  END
>  <Title>  (164) 
idAAGHgen7

$$$$

     RDKit          2D

 25 27  0  0  0  0  0  0  0  0999 V2000
    3.0000    0.0000    0.0000 C   0  0  0  0  0  0  0  0  0  0  0  0
    1.5000    0.0000    0.0000 C   0  0  0  0  0  0  0  0  0  0  0  0
    0.7500   -1.2990    0.0000 C   0  0  0  0  0  0  0  0  0  0  0  0
   -0.7500   -1.2990    0.0000 C   0  0  0  0  0  0  0  0  0  0  0  0
   -1.5000    0.0000    0.0000 C   0  0  0  0  0  0  0  0  0  0  0  0
   -3.0000    0.0000    0.0000 C   0  0  0  0  0  0  0  0  0  0  0  0
   -3.7500   -1.2990    0.0000 O   0  0  0  0  0  0  0  0  0  0  0  0
   -3.7500    1.2990    0.0000 N   0  0  0  0  0  0  0  0  0  0  0  0
   -5.2500    1.2990    0.0000 C   0  0  0  0  0  0  0  0  0  0  0  0
   -6.1317    0.0855    0.0000 N   0  0  0  0  0  0  0  0  0  0  0  0
   -7.5583    0.5490    0.0000 N   0  0  0  0  0  0  0  0  0  0  0  0
   -7.5583    2.0490    0.0000 N   0  0  0  0  0  0  0  0  0  0  0  0
   -6.1317    2.5126    0.0000 N   0  0  0  0  0  0  0  0  0  0  0  0
   -5.6682    3.9391    0.0000 C   0  0  0  0  0  0  0  0  0  0  0  0
   -4.2009    4.2510    0.0000 C   0  0  0  0  0  0  0  0  0  0  0  0
   -3.7374    5.6776    0.0000 C   0  0  0  0  0  0  0  0  0  0  0  0
   -4.7411    6.7923    0.0000 C   0  0  0  0  0  0  0  0  0  0  0  0
   -4.2776    8.2189    0.0000 C   0  0  0  0  0  0  0  0  0  0  0  0
   -5.2813    9.3336    0.0000 O   0  0  0  0  0  0  0  0  0  0  0  0
   -2.8104    8.5308    0.0000 N   0  0  0  0  0  0  0  0  0  0  0  0
   -2.3468    9.9574    0.0000 O   0  0  0  0  0  0  0  0  0  0  0  0
   -6.2083    6.4805    0.0000 C   0  0  0  0  0  0  0  0  0  0  0  0
   -6.6718    5.0539    0.0000 C   0  0  0  0  0  0  0  0  0  0  0  0
   -0.7500    1.2990    0.0000 C   0  0  0  0  0  0  0  0  0  0  0  0
    0.7500    1.2990    0.0000 C   0  0  0  0  0  0  0  0  0  0  0  0
  1  2  1  0
  2  3  2  0
  3  4  1  0
  4  5  2  0
  5  6  1  0
  6  7  2  0
  6  8  1  0
  8  9  1  0
  9 10  2  0
 10 11  1  0
 11 12  2  0
 12 13  1  0
 13 14  1  0
 14 15  2  0
 15 16  1  0
 16 17  2  0
 17 18  1  0
 18 19  2  0
 18 20  1  0
 20 21  1  0
 17 22  1  0
 22 23  1  0
  5 24  1  0
 24 25  1  0
 25  2  1  0
 13  9  1  0
 23 14  1  0
M  END
>  <Title>  (165) 
idAAGIgen7

$$$$

     RDKit          2D

 40 45  0  0  0  0  0  0  0  0999 V2000
   -8.2500   -6.4952    0.0000 C   0  0  0  0  0  0  0  0  0  0  0  0
   -7.5000   -5.1962    0.0000 C   0  0  0  0  0  0  0  0  0  0  0  0
   -6.0000   -5.1962    0.0000 C   0  0  0  0  0  0  0  0  0  0  0  0
   -5.2500   -3.8971    0.0000 C   0  0  0  0  0  0  0  0  0  0  0  0
   -6.0000   -2.5981    0.0000 C   0  0  0  0  0  0  0  0  0  0  0  0
   -5.2500   -1.2990    0.0000 N   0  0  0  0  0  0  0  0  0  0  0  0
   -6.0000    0.0000    0.0000 N   0  0  0  0  0  0  0  0  0  0  0  0
   -5.2500    1.2990    0.0000 N   0  0  0  0  0  0  0  0  0  0  0  0
   -3.7500    1.2990    0.0000 N   0  0  0  0  0  0  0  0  0  0  0  0
   -3.0000    0.0000    0.0000 N   0  0  0  0  0  0  0  0  0  0  0  0
   -3.7500   -1.2990    0.0000 N   0  0  0  0  0  0  0  0  0  0  0  0
   -3.0000   -2.5981    0.0000 C   0  0  0  0  0  0  0  0  0  0  0  0
   -3.7500   -3.8971    0.0000 C   0  0  0  0  0  0  0  0  0  0  0  0
   -3.0000   -5.1962    0.0000 C   0  0  0  0  0  0  0  0  0  0  0  0
   -1.5000   -5.1962    0.0000 C   0  0  0  0  0  0  0  0  0  0  0  0
   -0.7500   -6.4952    0.0000 C   0  0  0  0  0  0  0  0  0  0  0  0
   -1.5000   -7.7942    0.0000 C   0  0  0  0  0  0  0  0  0  0  0  0
   -0.7500   -9.0933    0.0000 C   0  0  0  0  0  0  0  0  0  0  0  0
    0.7500   -9.0933    0.0000 C   0  0  0  0  0  0  0  0  0  0  0  0
    1.5000   -7.7942    0.0000 C   0  0  0  0  0  0  0  0  0  0  0  0
    0.7500   -6.4952    0.0000 C   0  0  0  0  0  0  0  0  0  0  0  0
   -0.7500   -3.8971    0.0000 C   0  0  0  0  0  0  0  0  0  0  0  0
   -1.5000   -2.5981    0.0000 C   0  0  0  0  0  0  0  0  0  0  0  0
   -0.7500   -1.2990    0.0000 C   0  0  0  0  0  0  0  0  0  0  0  0
    0.7500   -1.2990    0.0000 C   0  0  0  0  0  0  0  0  0  0  0  0
    1.5000   -0.0000    0.0000 C   0  0  0  0  0  0  0  0  0  0  0  0
    0.7500    1.2990    0.0000 C   0  0  0  0  0  0  0  0  0  0  0  0
    1.5000    2.5981    0.0000 C   0  0  0  0  0  0  0  0  0  0  0  0
    3.0000    2.5981    0.0000 O   0  0  0  0  0  0  0  0  0  0  0  0
    0.7500    3.8971    0.0000 N   0  0  0  0  0  0  0  0  0  0  0  0
    1.5000    5.1962    0.0000 C   0  0  0  0  0  0  0  0  0  0  0  0
    3.0000    5.1962    0.0000 C   0  0  0  0  0  0  0  0  0  0  0  0
    3.7500    6.4952    0.0000 C   0  0  0  0  0  0  0  0  0  0  0  0
    3.0000    7.7942    0.0000 C   0  0  0  0  0  0  0  0  0  0  0  0
    1.5000    7.7942    0.0000 C   0  0  0  0  0  0  0  0  0  0  0  0
    0.7500    6.4952    0.0000 C   0  0  0  0  0  0  0  0  0  0  0  0
   -0.7500    1.2990    0.0000 C   0  0  0  0  0  0  0  0  0  0  0  0
   -1.5000   -0.0000    0.0000 C   0  0  0  0  0  0  0  0  0  0  0  0
   -7.5000   -2.5981    0.0000 C   0  0  0  0  0  0  0  0  0  0  0  0
   -8.2500   -3.8971    0.0000 C   0  0  0  0  0  0  0  0  0  0  0  0
  1  2  1  0
  2  3  2  0
  3  4  1  0
  4  5  2  0
  5  6  1  0
  6  7  1  0
  7  8  2  0
  8  9  1  0
  9 10  2  0
 10 11  1  0
 11 12  1  0
 12 13  2  0
 13 14  1  0
 14 15  2  0
 15 16  1  0
 16 17  2  0
 17 18  1  0
 18 19  2  0
 19 20  1  0
 20 21  2  0
 15 22  1  0
 22 23  2  0
 23 24  1  0
 24 25  2  0
 25 26  1  0
 26 27  2  0
 27 28  1  0
 28 29  2  0
 28 30  1  0
 30 31  1  0
 31 32  2  0
 32 33  1  0
 33 34  2  0
 34 35  1  0
 35 36  2  0
 27 37  1  0
 37 38  2  0
  5 39  1  0
 39 40  2  0
 40  2  1  0
 11  6  1  0
 23 12  1  0
 38 24  1  0
 21 16  1  0
 36 31  1  0
M  END
>  <Title>  (166) 
idAAGJgen7

$$$$

     RDKit          2D

 20 22  0  0  0  0  0  0  0  0999 V2000
   -4.5103   -2.9862    0.0000 O   0  0  0  0  0  0  0  0  0  0  0  0
   -3.0517   -2.6360    0.0000 C   0  0  0  0  0  0  0  0  0  0  0  0
   -2.2680   -3.9149    0.0000 C   0  0  0  0  0  0  0  0  0  0  0  0
   -0.8821   -4.4890    0.0000 C   0  0  0  0  0  0  0  0  0  0  0  0
    0.5764   -4.1388    0.0000 C   0  0  0  0  0  0  0  0  0  0  0  0
    0.8608   -5.6116    0.0000 C   0  0  0  0  0  0  0  0  0  0  0  0
    2.1896   -6.3075    0.0000 C   0  0  0  0  0  0  0  0  0  0  0  0
    3.5622   -5.7026    0.0000 C   0  0  0  0  0  0  0  0  0  0  0  0
    3.9450   -4.2522    0.0000 C   0  0  0  0  0  0  0  0  0  0  0  0
    3.0497   -3.0487    0.0000 C   0  0  0  0  0  0  0  0  0  0  0  0
    1.5506   -2.9982    0.0000 C   0  0  0  0  0  0  0  0  0  0  0  0
    1.3858   -1.3858    0.0000 C   0  0  0  0  0  0  0  0  0  0  0  0
    1.9598    0.0000    0.0000 C   0  0  0  0  0  0  0  0  0  0  0  0
    1.3858    1.3858    0.0000 C   0  0  0  0  0  0  0  0  0  0  0  0
    0.0000    1.9598    0.0000 C   0  0  0  0  0  0  0  0  0  0  0  0
   -1.3858    1.3858    0.0000 C   0  0  0  0  0  0  0  0  0  0  0  0
   -1.9598    0.0000    0.0000 C   0  0  0  0  0  0  0  0  0  0  0  0
   -1.3858   -1.3858    0.0000 C   0  0  0  0  0  0  0  0  0  0  0  0
   -0.0000   -1.9598    0.0000 N   0  0  0  0  0  0  0  0  0  0  0  0
   -2.9340   -1.1406    0.0000 N   0  0  0  0  0  0  0  0  0  0  0  0
  1  2  1  0
  2  3  2  0
  3  4  1  0
  4  5  2  0
  5  6  1  0
  6  7  2  0
  7  8  1  0
  8  9  2  0
  9 10  1  0
 10 11  2  0
 11 12  1  0
 12 13  2  0
 13 14  1  0
 14 15  2  0
 15 16  1  0
 16 17  2  0
 17 18  1  0
 18 19  1  0
 17 20  1  0
 20  2  1  0
 11  5  1  0
 19 12  1  0
M  END
>  <Title>  (167) 
idAAGKgen7

$$$$

     RDKit          2D

 30 34  0  0  0  0  0  0  0  0999 V2000
    3.0000    0.0000    0.0000 C   0  0  0  0  0  0  0  0  0  0  0  0
    1.5000    0.0000    0.0000 C   0  0  0  0  0  0  0  0  0  0  0  0
    0.7500    1.2990    0.0000 C   0  0  0  0  0  0  0  0  0  0  0  0
   -0.7500    1.2990    0.0000 C   0  0  0  0  0  0  0  0  0  0  0  0
   -1.5000    0.0000    0.0000 C   0  0  0  0  0  0  0  0  0  0  0  0
   -3.0000    0.0000    0.0000 C   0  0  0  0  0  0  0  0  0  0  0  0
   -3.8817   -1.2135    0.0000 C   0  0  0  0  0  0  0  0  0  0  0  0
   -5.3083   -0.7500    0.0000 N   0  0  0  0  0  0  0  0  0  0  0  0
   -5.3083    0.7500    0.0000 N   0  0  0  0  0  0  0  0  0  0  0  0
   -3.8817    1.2135    0.0000 N   0  0  0  0  0  0  0  0  0  0  0  0
   -3.4182    2.6401    0.0000 C   0  0  0  0  0  0  0  0  0  0  0  0
   -1.9509    2.9520    0.0000 C   0  0  0  0  0  0  0  0  0  0  0  0
   -1.4874    4.3786    0.0000 C   0  0  0  0  0  0  0  0  0  0  0  0
   -2.4911    5.4933    0.0000 C   0  0  0  0  0  0  0  0  0  0  0  0
   -2.0276    6.9199    0.0000 C   0  0  0  0  0  0  0  0  0  0  0  0
   -2.9093    8.1334    0.0000 N   0  0  0  0  0  0  0  0  0  0  0  0
   -2.0276    9.3469    0.0000 N   0  0  0  0  0  0  0  0  0  0  0  0
   -0.6010    8.8834    0.0000 N   0  0  0  0  0  0  0  0  0  0  0  0
   -0.6010    7.3834    0.0000 N   0  0  0  0  0  0  0  0  0  0  0  0
    0.6125    6.5017    0.0000 C   0  0  0  0  0  0  0  0  0  0  0  0
    0.4557    5.0099    0.0000 C   0  0  0  0  0  0  0  0  0  0  0  0
    1.6693    4.1283    0.0000 C   0  0  0  0  0  0  0  0  0  0  0  0
    3.0396    4.7384    0.0000 C   0  0  0  0  0  0  0  0  0  0  0  0
    3.1964    6.2301    0.0000 C   0  0  0  0  0  0  0  0  0  0  0  0
    1.9829    7.1118    0.0000 C   0  0  0  0  0  0  0  0  0  0  0  0
   -3.9583    5.1814    0.0000 C   0  0  0  0  0  0  0  0  0  0  0  0
   -4.4218    3.7548    0.0000 C   0  0  0  0  0  0  0  0  0  0  0  0
   -0.7500   -1.2990    0.0000 C   0  0  0  0  0  0  0  0  0  0  0  0
   -1.5000   -2.5981    0.0000 O   0  0  0  0  0  0  0  0  0  0  0  0
    0.7500   -1.2990    0.0000 N   0  0  0  0  0  0  0  0  0  0  0  0
  1  2  1  0
  2  3  2  0
  3  4  1  0
  4  5  2  0
  5  6  1  0
  6  7  2  0
  7  8  1  0
  8  9  2  0
  9 10  1  0
 10 11  1  0
 11 12  2  0
 12 13  1  0
 13 14  2  0
 14 15  1  0
 15 16  2  0
 16 17  1  0
 17 18  2  0
 18 19  1  0
 19 20  1  0
 20 21  2  0
 21 22  1  0
 22 23  2  0
 23 24  1  0
 24 25  2  0
 14 26  1  0
 26 27  2  0
  5 28  1  0
 28 29  2  0
 28 30  1  0
 30  2  1  0
 10  6  1  0
 27 11  1  0
 19 15  1  0
 25 20  1  0
M  END
>  <Title>  (168) 
idAAGLgen7

$$$$

     RDKit          2D

 57 65  0  0  0  0  0  0  0  0999 V2000
    2.6756   10.7240    0.0000 C   0  0  0  0  0  0  0  0  0  0  0  0
    2.9361    9.2467    0.0000 C   0  0  0  0  0  0  0  0  0  0  0  0
    4.3456    8.7337    0.0000 C   0  0  0  0  0  0  0  0  0  0  0  0
    4.6061    7.2565    0.0000 C   0  0  0  0  0  0  0  0  0  0  0  0
    3.4570    6.2923    0.0000 C   0  0  0  0  0  0  0  0  0  0  0  0
    3.7175    4.8151    0.0000 C   0  0  0  0  0  0  0  0  0  0  0  0
    2.5684    3.8509    0.0000 C   0  0  0  0  0  0  0  0  0  0  0  0
    2.8289    2.3737    0.0000 C   0  0  0  0  0  0  0  0  0  0  0  0
    1.6798    1.4095    0.0000 C   0  0  0  0  0  0  0  0  0  0  0  0
    2.1929    0.0000    0.0000 C   0  0  0  0  0  0  0  0  0  0  0  0
    1.6798   -1.4095    0.0000 C   0  0  0  0  0  0  0  0  0  0  0  0
    0.3808   -2.1595    0.0000 C   0  0  0  0  0  0  0  0  0  0  0  0
   -1.0964   -1.8991    0.0000 C   0  0  0  0  0  0  0  0  0  0  0  0
   -2.0606   -0.7500    0.0000 N   0  0  0  0  0  0  0  0  0  0  0  0
   -2.0606    0.7500    0.0000 N   0  0  0  0  0  0  0  0  0  0  0  0
   -1.0964    1.8991    0.0000 N   0  0  0  0  0  0  0  0  0  0  0  0
    0.3808    2.1595    0.0000 C   0  0  0  0  0  0  0  0  0  0  0  0
    0.6413    3.6368    0.0000 O   0  0  0  0  0  0  0  0  0  0  0  0
   -2.3955   -2.6491    0.0000 C   0  0  0  0  0  0  0  0  0  0  0  0
   -2.9085   -4.0586    0.0000 N   0  0  0  0  0  0  0  0  0  0  0  0
   -2.3955   -5.4681    0.0000 N   0  0  0  0  0  0  0  0  0  0  0  0
   -1.0964   -6.2181    0.0000 N   0  0  0  0  0  0  0  0  0  0  0  0
    0.3808   -5.9577    0.0000 N   0  0  0  0  0  0  0  0  0  0  0  0
    1.3450   -4.8086    0.0000 N   0  0  0  0  0  0  0  0  0  0  0  0
    1.3450   -3.3086    0.0000 C   0  0  0  0  0  0  0  0  0  0  0  0
   -0.4052   -4.3191    0.0000 N   0  0  0  0  0  0  0  0  0  0  0  0
   -1.8824   -4.0586    0.0000 C   0  0  0  0  0  0  0  0  0  0  0  0
   -2.2318   -4.7751    0.0000 O   0  0  0  0  0  0  0  0  0  0  0  0
    4.2384    1.8607    0.0000 C   0  0  0  0  0  0  0  0  0  0  0  0
    5.3875    2.8249    0.0000 C   0  0  0  0  0  0  0  0  0  0  0  0
    5.1270    4.3021    0.0000 C   0  0  0  0  0  0  0  0  0  0  0  0
    6.2761    5.2663    0.0000 C   0  0  0  0  0  0  0  0  0  0  0  0
    7.6856    4.7532    0.0000 C   0  0  0  0  0  0  0  0  0  0  0  0
    8.8347    5.7174    0.0000 C   0  0  0  0  0  0  0  0  0  0  0  0
    8.5742    7.1946    0.0000 C   0  0  0  0  0  0  0  0  0  0  0  0
    7.1647    7.7077    0.0000 C   0  0  0  0  0  0  0  0  0  0  0  0
    6.0156    6.7435    0.0000 C   0  0  0  0  0  0  0  0  0  0  0  0
    4.6061    7.2565    0.0000 N   0  0  0  0  0  0  0  0  0  0  0  0
    3.3625    6.4177    0.0000 N   0  0  0  0  0  0  0  0  0  0  0  0
    2.1805    7.3412    0.0000 C   0  0  0  0  0  0  0  0  0  0  0  0
    2.6935    8.7507    0.0000 N   0  0  0  0  0  0  0  0  0  0  0  0
    4.1926    8.6984    0.0000 C   0  0  0  0  0  0  0  0  0  0  0  0
    5.1161    9.8804    0.0000 N   0  0  0  0  0  0  0  0  0  0  0  0
    4.7027   11.3223    0.0000 N   0  0  0  0  0  0  0  0  0  0  0  0
    5.9462   12.1611    0.0000 N   0  0  0  0  0  0  0  0  0  0  0  0
    7.1282   11.2376    0.0000 N   0  0  0  0  0  0  0  0  0  0  0  0
    6.6152    9.8281    0.0000 C   0  0  0  0  0  0  0  0  0  0  0  0
    7.4540    8.5845    0.0000 C   0  0  0  0  0  0  0  0  0  0  0  0
    6.7964    7.2363    0.0000 C   0  0  0  0  0  0  0  0  0  0  0  0
    7.6352    5.9928    0.0000 C   0  0  0  0  0  0  0  0  0  0  0  0
    9.1316    6.0974    0.0000 C   0  0  0  0  0  0  0  0  0  0  0  0
    9.9704    4.8538    0.0000 C   0  0  0  0  0  0  0  0  0  0  0  0
    9.7891    7.4456    0.0000 N   0  0  0  0  0  0  0  0  0  0  0  0
    8.9503    8.6891    0.0000 C   0  0  0  0  0  0  0  0  0  0  0  0
    9.6079   10.0373    0.0000 O   0  0  0  0  0  0  0  0  0  0  0  0
    2.0475    6.8054    0.0000 C   0  0  0  0  0  0  0  0  0  0  0  0
    1.7870    8.2826    0.0000 C   0  0  0  0  0  0  0  0  0  0  0  0
  1  2  1  0
  2  3  2  0
  3  4  1  0
  4  5  2  0
  5  6  1  0
  6  7  2  0
  7  8  1  0
  8  9  1  0
  9 10  2  0
 10 11  1  0
 11 12  2  0
 12 13  1  0
 13 14  2  0
 14 15  1  0
 15 16  2  0
 16 17  1  0
 17 18  2  0
 13 19  1  0
 19 20  2  0
 20 21  1  0
 21 22  2  0
 22 23  1  0
 23 24  2  0
 24 25  1  0
 25 26  1  0
 26 27  1  0
 27 28  2  0
  8 29  2  0
 29 30  1  0
 30 31  2  0
 31 32  1  0
 32 33  2  0
 33 34  1  0
 34 35  2  0
 35 36  1  0
 36 37  2  0
 37 38  1  0
 38 39  1  0
 39 40  2  0
 40 41  1  0
 41 42  2  0
 42 43  1  0
 43 44  1  0
 44 45  2  0
 45 46  1  0
 46 47  2  0
 47 48  1  0
 48 49  2  0
 49 50  1  0
 50 51  2  0
 51 52  1  0
 51 53  1  0
 53 54  1  0
 54 55  2  0
  5 56  1  0
 56 57  2  0
 57  2  1  0
 31  6  1  0
 37 32  1  0
 42 38  1  0
 47 43  1  0
 54 48  1  0
 17  9  1  0
 27 19  1  0
 25 12  1  0
M  END
>  <Title>  (169) 
idAAGMgen7

$$$$

     RDKit          2D

 16 18  0  0  0  0  0  0  0  0999 V2000
   -3.1965   -4.4337    0.0000 O   0  0  0  0  0  0  0  0  0  0  0  0
   -1.8107   -3.8597    0.0000 C   0  0  0  0  0  0  0  0  0  0  0  0
   -0.7500   -4.9204    0.0000 C   0  0  0  0  0  0  0  0  0  0  0  0
    0.7500   -4.9204    0.0000 C   0  0  0  0  0  0  0  0  0  0  0  0
    1.8107   -3.8597    0.0000 C   0  0  0  0  0  0  0  0  0  0  0  0
    3.2372   -4.3232    0.0000 C   0  0  0  0  0  0  0  0  0  0  0  0
    4.1189   -3.1097    0.0000 C   0  0  0  0  0  0  0  0  0  0  0  0
    3.2372   -1.8962    0.0000 C   0  0  0  0  0  0  0  0  0  0  0  0
    1.8107   -2.3597    0.0000 C   0  0  0  0  0  0  0  0  0  0  0  0
    0.7500   -1.2990    0.0000 C   0  0  0  0  0  0  0  0  0  0  0  0
    1.5000    0.0000    0.0000 C   0  0  0  0  0  0  0  0  0  0  0  0
    0.7500    1.2990    0.0000 C   0  0  0  0  0  0  0  0  0  0  0  0
   -0.7500    1.2990    0.0000 C   0  0  0  0  0  0  0  0  0  0  0  0
   -1.5000    0.0000    0.0000 C   0  0  0  0  0  0  0  0  0  0  0  0
   -0.7500   -1.2990    0.0000 C   0  0  0  0  0  0  0  0  0  0  0  0
   -1.8107   -2.3597    0.0000 C   0  0  0  0  0  0  0  0  0  0  0  0
  1  2  1  0
  2  3  2  0
  3  4  1  0
  4  5  2  0
  5  6  1  0
  6  7  2  0
  7  8  1  0
  8  9  2  0
  9 10  1  0
 10 11  2  0
 11 12  1  0
 12 13  2  0
 13 14  1  0
 14 15  2  0
 15 16  1  0
 16  2  1  0
  9  5  1  0
 15 10  1  0
M  END
>  <Title>  (170) 
idAAGNgen7

$$$$

     RDKit          2D

 41 47  0  0  0  0  0  0  0  0999 V2000
    3.0000    0.0000    0.0000 C   0  0  0  0  0  0  0  0  0  0  0  0
    1.5000    0.0000    0.0000 C   0  0  0  0  0  0  0  0  0  0  0  0
    0.7500    1.2990    0.0000 C   0  0  0  0  0  0  0  0  0  0  0  0
   -0.7500    1.2990    0.0000 C   0  0  0  0  0  0  0  0  0  0  0  0
   -1.5000    0.0000    0.0000 C   0  0  0  0  0  0  0  0  0  0  0  0
   -3.0000    0.0000    0.0000 C   0  0  0  0  0  0  0  0  0  0  0  0
   -3.8817   -1.2135    0.0000 N   0  0  0  0  0  0  0  0  0  0  0  0
   -5.3083   -0.7500    0.0000 N   0  0  0  0  0  0  0  0  0  0  0  0
   -5.3083    0.7500    0.0000 N   0  0  0  0  0  0  0  0  0  0  0  0
   -3.8817    1.2135    0.0000 N   0  0  0  0  0  0  0  0  0  0  0  0
   -3.4182    2.6401    0.0000 C   0  0  0  0  0  0  0  0  0  0  0  0
   -1.9509    2.9520    0.0000 C   0  0  0  0  0  0  0  0  0  0  0  0
   -1.4874    4.3786    0.0000 C   0  0  0  0  0  0  0  0  0  0  0  0
   -2.4911    5.4933    0.0000 C   0  0  0  0  0  0  0  0  0  0  0  0
   -2.0276    6.9199    0.0000 C   0  0  0  0  0  0  0  0  0  0  0  0
   -2.9093    8.1334    0.0000 N   0  0  0  0  0  0  0  0  0  0  0  0
   -2.0276    9.3469    0.0000 N   0  0  0  0  0  0  0  0  0  0  0  0
   -0.6010    8.8834    0.0000 N   0  0  0  0  0  0  0  0  0  0  0  0
   -0.6010    7.3834    0.0000 N   0  0  0  0  0  0  0  0  0  0  0  0
    0.6125    6.5017    0.0000 C   0  0  0  0  0  0  0  0  0  0  0  0
    0.6125    5.0017    0.0000 N   0  0  0  0  0  0  0  0  0  0  0  0
    2.0391    4.5382    0.0000 N   0  0  0  0  0  0  0  0  0  0  0  0
    2.9208    5.7517    0.0000 N   0  0  0  0  0  0  0  0  0  0  0  0
    2.0391    6.9652    0.0000 N   0  0  0  0  0  0  0  0  0  0  0  0
    2.5026    8.3918    0.0000 C   0  0  0  0  0  0  0  0  0  0  0  0
    1.4989    9.5065    0.0000 C   0  0  0  0  0  0  0  0  0  0  0  0
    1.9625   10.9331    0.0000 C   0  0  0  0  0  0  0  0  0  0  0  0
    3.4297   11.2450    0.0000 N   0  0  0  0  0  0  0  0  0  0  0  0
    4.4334   10.1303    0.0000 C   0  0  0  0  0  0  0  0  0  0  0  0
    3.9699    8.7037    0.0000 C   0  0  0  0  0  0  0  0  0  0  0  0
    4.9736    7.5890    0.0000 C   0  0  0  0  0  0  0  0  0  0  0  0
    6.4408    7.9008    0.0000 C   0  0  0  0  0  0  0  0  0  0  0  0
    7.4445    6.7861    0.0000 C   0  0  0  0  0  0  0  0  0  0  0  0
    6.9810    5.3595    0.0000 C   0  0  0  0  0  0  0  0  0  0  0  0
    5.5137    5.0477    0.0000 C   0  0  0  0  0  0  0  0  0  0  0  0
    4.5100    6.1624    0.0000 C   0  0  0  0  0  0  0  0  0  0  0  0
   -3.9583    5.1814    0.0000 C   0  0  0  0  0  0  0  0  0  0  0  0
   -4.4218    3.7548    0.0000 C   0  0  0  0  0  0  0  0  0  0  0  0
   -0.7500   -1.2990    0.0000 C   0  0  0  0  0  0  0  0  0  0  0  0
   -1.5000   -2.5981    0.0000 O   0  0  0  0  0  0  0  0  0  0  0  0
    0.7500   -1.2990    0.0000 N   0  0  0  0  0  0  0  0  0  0  0  0
  1  2  1  0
  2  3  2  0
  3  4  1  0
  4  5  2  0
  5  6  1  0
  6  7  2  0
  7  8  1  0
  8  9  2  0
  9 10  1  0
 10 11  1  0
 11 12  2  0
 12 13  1  0
 13 14  2  0
 14 15  1  0
 15 16  2  0
 16 17  1  0
 17 18  2  0
 18 19  1  0
 19 20  1  0
 20 21  2  0
 21 22  1  0
 22 23  2  0
 23 24  1  0
 24 25  1  0
 25 26  2  0
 26 27  1  0
 27 28  2  0
 28 29  1  0
 29 30  2  0
 30 31  1  0
 31 32  2  0
 32 33  1  0
 33 34  2  0
 34 35  1  0
 35 36  2  0
 14 37  1  0
 37 38  2  0
  5 39  1  0
 39 40  2  0
 39 41  1  0
 41  2  1  0
 10  6  1  0
 38 11  1  0
 19 15  1  0
 24 20  1  0
 30 25  1  0
 36 31  1  0
M  END
>  <Title>  (171) 
idAAGOgen7

$$$$

     RDKit          2D

 39 43  0  0  0  0  0  0  0  0999 V2000
    5.2500   -1.2990    0.0000 C   0  0  0  0  0  0  0  0  0  0  0  0
    3.7500   -1.2990    0.0000 C   0  0  0  0  0  0  0  0  0  0  0  0
    3.0000   -2.5981    0.0000 O   0  0  0  0  0  0  0  0  0  0  0  0
    3.0000    0.0000    0.0000 N   0  0  0  0  0  0  0  0  0  0  0  0
    1.5000    0.0000    0.0000 C   0  0  0  0  0  0  0  0  0  0  0  0
    0.7500   -1.2990    0.0000 C   0  0  0  0  0  0  0  0  0  0  0  0
   -0.7500   -1.2990    0.0000 C   0  0  0  0  0  0  0  0  0  0  0  0
   -1.5000    0.0000    0.0000 C   0  0  0  0  0  0  0  0  0  0  0  0
   -3.0000    0.0000    0.0000 C   0  0  0  0  0  0  0  0  0  0  0  0
   -3.7500   -1.2990    0.0000 O   0  0  0  0  0  0  0  0  0  0  0  0
   -3.7500    1.2990    0.0000 N   0  0  0  0  0  0  0  0  0  0  0  0
   -5.2500    1.2990    0.0000 C   0  0  0  0  0  0  0  0  0  0  0  0
   -6.1317    0.0855    0.0000 N   0  0  0  0  0  0  0  0  0  0  0  0
   -7.5583    0.5490    0.0000 N   0  0  0  0  0  0  0  0  0  0  0  0
   -7.5583    2.0490    0.0000 N   0  0  0  0  0  0  0  0  0  0  0  0
   -6.1317    2.5126    0.0000 N   0  0  0  0  0  0  0  0  0  0  0  0
   -5.6682    3.9391    0.0000 C   0  0  0  0  0  0  0  0  0  0  0  0
   -4.2009    4.2510    0.0000 C   0  0  0  0  0  0  0  0  0  0  0  0
   -3.7374    5.6776    0.0000 C   0  0  0  0  0  0  0  0  0  0  0  0
   -4.7411    6.7923    0.0000 C   0  0  0  0  0  0  0  0  0  0  0  0
   -4.2776    8.2189    0.0000 C   0  0  0  0  0  0  0  0  0  0  0  0
   -2.8104    8.5308    0.0000 C   0  0  0  0  0  0  0  0  0  0  0  0
   -2.3468    9.9574    0.0000 C   0  0  0  0  0  0  0  0  0  0  0  0
   -3.3505   11.0721    0.0000 C   0  0  0  0  0  0  0  0  0  0  0  0
   -4.8177   10.7602    0.0000 C   0  0  0  0  0  0  0  0  0  0  0  0
   -5.2813    9.3336    0.0000 C   0  0  0  0  0  0  0  0  0  0  0  0
   -6.2083    6.4805    0.0000 C   0  0  0  0  0  0  0  0  0  0  0  0
   -6.6718    5.0539    0.0000 C   0  0  0  0  0  0  0  0  0  0  0  0
   -8.1391    4.7420    0.0000 C   0  0  0  0  0  0  0  0  0  0  0  0
   -9.1428    5.8567    0.0000 C   0  0  0  0  0  0  0  0  0  0  0  0
  -10.6100    5.5448    0.0000 C   0  0  0  0  0  0  0  0  0  0  0  0
  -11.0735    4.1183    0.0000 C   0  0  0  0  0  0  0  0  0  0  0  0
  -12.5407    3.8064    0.0000 C   0  0  0  0  0  0  0  0  0  0  0  0
  -10.0698    3.0035    0.0000 C   0  0  0  0  0  0  0  0  0  0  0  0
  -10.5333    1.5770    0.0000 O   0  0  0  0  0  0  0  0  0  0  0  0
   -8.6026    3.3154    0.0000 N   0  0  0  0  0  0  0  0  0  0  0  0
   -0.7500    1.2990    0.0000 N   0  0  0  0  0  0  0  0  0  0  0  0
    0.7500    1.2990    0.0000 C   0  0  0  0  0  0  0  0  0  0  0  0
    1.5000    2.5981    0.0000 O   0  0  0  0  0  0  0  0  0  0  0  0
  1  2  1  0
  2  3  2  0
  2  4  1  0
  4  5  1  0
  5  6  2  0
  6  7  1  0
  7  8  2  0
  8  9  1  0
  9 10  2  0
  9 11  1  0
 11 12  1  0
 12 13  2  0
 13 14  1  0
 14 15  2  0
 15 16  1  0
 16 17  1  0
 17 18  2  0
 18 19  1  0
 19 20  2  0
 20 21  1  0
 21 22  2  0
 22 23  1  0
 23 24  2  0
 24 25  1  0
 25 26  2  0
 20 27  1  0
 27 28  2  0
 28 29  1  0
 29 30  2  0
 30 31  1  0
 31 32  2  0
 32 33  1  0
 32 34  1  0
 34 35  2  0
 34 36  1  0
  8 37  1  0
 37 38  1  0
 38 39  2  0
 38  5  1  0
 16 12  1  0
 28 17  1  0
 36 29  1  0
 26 21  1  0
M  END
>  <Title>  (172) 
idAAGPgen7

$$$$

     RDKit          2D

 12 12  0  0  0  0  0  0  0  0999 V2000
    5.2500   -1.2990    0.0000 C   0  0  0  0  0  0  0  0  0  0  0  0
    3.7500   -1.2990    0.0000 C   0  0  0  0  0  0  0  0  0  0  0  0
    3.0000   -2.5981    0.0000 O   0  0  0  0  0  0  0  0  0  0  0  0
    3.0000    0.0000    0.0000 O   0  0  0  0  0  0  0  0  0  0  0  0
    1.5000    0.0000    0.0000 C   0  0  0  0  0  0  0  0  0  0  0  0
    0.7500   -1.2990    0.0000 C   0  0  0  0  0  0  0  0  0  0  0  0
   -0.7500   -1.2990    0.0000 C   0  0  0  0  0  0  0  0  0  0  0  0
   -1.5000    0.0000    0.0000 C   0  0  0  0  0  0  0  0  0  0  0  0
   -3.0000    0.0000    0.0000 C   0  0  0  0  0  0  0  0  0  0  0  0
   -0.7500    1.2990    0.0000 C   0  0  0  0  0  0  0  0  0  0  0  0
    0.7500    1.2990    0.0000 C   0  0  0  0  0  0  0  0  0  0  0  0
    1.5000    2.5981    0.0000 C   0  0  0  0  0  0  0  0  0  0  0  0
  1  2  1  0
  2  3  2  0
  2  4  1  0
  4  5  1  0
  5  6  2  0
  6  7  1  0
  7  8  2  0
  8  9  1  0
  8 10  1  0
 10 11  2  0
 11 12  1  0
 11  5  1  0
M  END
>  <Title>  (173) 
idAAGQgen7

$$$$

     RDKit          2D

  8  8  0  0  0  0  0  0  0  0999 V2000
    3.0000    0.0000    0.0000 C   0  0  0  0  0  0  0  0  0  0  0  0
    1.5000    0.0000    0.0000 C   0  0  0  0  0  0  0  0  0  0  0  0
    0.7500   -1.2990    0.0000 C   0  0  0  0  0  0  0  0  0  0  0  0
   -0.7500   -1.2990    0.0000 C   0  0  0  0  0  0  0  0  0  0  0  0
   -1.5000    0.0000    0.0000 C   0  0  0  0  0  0  0  0  0  0  0  0
   -0.7500    1.2990    0.0000 C   0  0  0  0  0  0  0  0  0  0  0  0
    0.7500    1.2990    0.0000 C   0  0  0  0  0  0  0  0  0  0  0  0
    1.5000    2.5981    0.0000 C   0  0  0  0  0  0  0  0  0  0  0  0
  1  2  1  0
  2  3  2  0
  3  4  1  0
  4  5  2  0
  5  6  1  0
  6  7  2  0
  7  8  1  0
  7  2  1  0
M  END
>  <Title>  (174) 
idAAGRgen7

$$$$

     RDKit          2D

 38 43  0  0  0  0  0  0  0  0999 V2000
   10.0355    0.6881    0.0000 C   0  0  0  0  0  0  0  0  0  0  0  0
    8.5683    0.3762    0.0000 C   0  0  0  0  0  0  0  0  0  0  0  0
    7.4536    1.3799    0.0000 C   0  0  0  0  0  0  0  0  0  0  0  0
    6.1545    0.6299    0.0000 C   0  0  0  0  0  0  0  0  0  0  0  0
    6.4664   -0.8373    0.0000 C   0  0  0  0  0  0  0  0  0  0  0  0
    5.4627   -1.9520    0.0000 C   0  0  0  0  0  0  0  0  0  0  0  0
    5.9262   -3.3786    0.0000 O   0  0  0  0  0  0  0  0  0  0  0  0
    3.9955   -1.6402    0.0000 N   0  0  0  0  0  0  0  0  0  0  0  0
    2.9918   -2.7549    0.0000 C   0  0  0  0  0  0  0  0  0  0  0  0
    3.3037   -4.2221    0.0000 N   0  0  0  0  0  0  0  0  0  0  0  0
    2.0046   -4.9721    0.0000 N   0  0  0  0  0  0  0  0  0  0  0  0
    0.8899   -3.9684    0.0000 N   0  0  0  0  0  0  0  0  0  0  0  0
    1.5000   -2.5981    0.0000 N   0  0  0  0  0  0  0  0  0  0  0  0
    0.7500   -1.2990    0.0000 C   0  0  0  0  0  0  0  0  0  0  0  0
    1.5000    0.0000    0.0000 C   0  0  0  0  0  0  0  0  0  0  0  0
    0.7500    1.2990    0.0000 C   0  0  0  0  0  0  0  0  0  0  0  0
   -0.7500    1.2990    0.0000 C   0  0  0  0  0  0  0  0  0  0  0  0
   -1.5000    2.5981    0.0000 C   0  0  0  0  0  0  0  0  0  0  0  0
   -0.7500    3.8971    0.0000 C   0  0  0  0  0  0  0  0  0  0  0  0
   -1.5000    5.1962    0.0000 C   0  0  0  0  0  0  0  0  0  0  0  0
   -3.0000    5.1962    0.0000 C   0  0  0  0  0  0  0  0  0  0  0  0
   -3.7500    3.8971    0.0000 N   0  0  0  0  0  0  0  0  0  0  0  0
   -3.0000    2.5981    0.0000 C   0  0  0  0  0  0  0  0  0  0  0  0
   -1.5000    0.0000    0.0000 C   0  0  0  0  0  0  0  0  0  0  0  0
   -0.7500   -1.2990    0.0000 C   0  0  0  0  0  0  0  0  0  0  0  0
   -1.5000   -2.5981    0.0000 C   0  0  0  0  0  0  0  0  0  0  0  0
   -0.8899   -3.9684    0.0000 C   0  0  0  0  0  0  0  0  0  0  0  0
   -2.0046   -4.9721    0.0000 C   0  0  0  0  0  0  0  0  0  0  0  0
   -3.3037   -4.2221    0.0000 C   0  0  0  0  0  0  0  0  0  0  0  0
   -4.6740   -4.8322    0.0000 C   0  0  0  0  0  0  0  0  0  0  0  0
   -5.8875   -3.9505    0.0000 C   0  0  0  0  0  0  0  0  0  0  0  0
   -7.2578   -4.5606    0.0000 C   0  0  0  0  0  0  0  0  0  0  0  0
   -7.4146   -6.0524    0.0000 C   0  0  0  0  0  0  0  0  0  0  0  0
   -6.2011   -6.9341    0.0000 C   0  0  0  0  0  0  0  0  0  0  0  0
   -4.8308   -6.3240    0.0000 C   0  0  0  0  0  0  0  0  0  0  0  0
   -2.9918   -2.7549    0.0000 C   0  0  0  0  0  0  0  0  0  0  0  0
   -3.9955   -1.6402    0.0000 O   0  0  0  0  0  0  0  0  0  0  0  0
    7.9582   -0.9941    0.0000 C   0  0  0  0  0  0  0  0  0  0  0  0
  1  2  1  0
  2  3  2  0
  3  4  1  0
  4  5  2  0
  5  6  1  0
  6  7  2  0
  6  8  1  0
  8  9  1  0
  9 10  2  0
 10 11  1  0
 11 12  2  0
 12 13  1  0
 13 14  1  0
 14 15  2  0
 15 16  1  0
 16 17  2  0
 17 18  1  0
 18 19  2  0
 19 20  1  0
 20 21  2  0
 21 22  1  0
 22 23  2  0
 17 24  1  0
 24 25  2  0
 25 26  1  0
 26 27  2  0
 27 28  1  0
 28 29  2  0
 29 30  1  0
 30 31  2  0
 31 32  1  0
 32 33  2  0
 33 34  1  0
 34 35  2  0
 29 36  1  0
 36 37  2  0
  5 38  1  0
 38  2  1  0
 13  9  1  0
 25 14  1  0
 36 26  1  0
 23 18  1  0
 35 30  1  0
M  END
>  <Title>  (175) 
idAAGSgen7

$$$$

     RDKit          2D

 36 40  0  0  0  0  0  0  0  0999 V2000
   12.1187    3.6463    0.0000 C   0  0  0  0  0  0  0  0  0  0  0  0
   11.1150    2.5315    0.0000 C   0  0  0  0  0  0  0  0  0  0  0  0
   11.5785    1.1050    0.0000 O   0  0  0  0  0  0  0  0  0  0  0  0
    9.6478    2.8434    0.0000 N   0  0  0  0  0  0  0  0  0  0  0  0
    8.6441    1.7287    0.0000 C   0  0  0  0  0  0  0  0  0  0  0  0
    7.1523    1.8855    0.0000 C   0  0  0  0  0  0  0  0  0  0  0  0
    6.5422    0.5152    0.0000 C   0  0  0  0  0  0  0  0  0  0  0  0
    7.6569   -0.4885    0.0000 C   0  0  0  0  0  0  0  0  0  0  0  0
    7.5001   -1.9803    0.0000 C   0  0  0  0  0  0  0  0  0  0  0  0
    8.7136   -2.8620    0.0000 O   0  0  0  0  0  0  0  0  0  0  0  0
    6.1298   -2.5904    0.0000 N   0  0  0  0  0  0  0  0  0  0  0  0
    5.9730   -4.0822    0.0000 C   0  0  0  0  0  0  0  0  0  0  0  0
    7.0877   -5.0859    0.0000 N   0  0  0  0  0  0  0  0  0  0  0  0
    6.4776   -6.4562    0.0000 N   0  0  0  0  0  0  0  0  0  0  0  0
    4.9858   -6.2994    0.0000 N   0  0  0  0  0  0  0  0  0  0  0  0
    4.6740   -4.8322    0.0000 N   0  0  0  0  0  0  0  0  0  0  0  0
    3.3037   -4.2221    0.0000 C   0  0  0  0  0  0  0  0  0  0  0  0
    2.0046   -4.9721    0.0000 C   0  0  0  0  0  0  0  0  0  0  0  0
    0.8899   -3.9684    0.0000 C   0  0  0  0  0  0  0  0  0  0  0  0
    1.5000   -2.5981    0.0000 C   0  0  0  0  0  0  0  0  0  0  0  0
    0.7500   -1.2990    0.0000 N   0  0  0  0  0  0  0  0  0  0  0  0
    1.5000    0.0000    0.0000 C   0  0  0  0  0  0  0  0  0  0  0  0
    0.7500    1.2990    0.0000 C   0  0  0  0  0  0  0  0  0  0  0  0
   -0.7500    1.2990    0.0000 N   0  0  0  0  0  0  0  0  0  0  0  0
   -1.5000    2.5981    0.0000 C   0  0  0  0  0  0  0  0  0  0  0  0
   -0.7500    3.8971    0.0000 C   0  0  0  0  0  0  0  0  0  0  0  0
   -1.5000    5.1962    0.0000 C   0  0  0  0  0  0  0  0  0  0  0  0
   -3.0000    5.1962    0.0000 C   0  0  0  0  0  0  0  0  0  0  0  0
   -3.7500    3.8971    0.0000 C   0  0  0  0  0  0  0  0  0  0  0  0
   -3.0000    2.5981    0.0000 C   0  0  0  0  0  0  0  0  0  0  0  0
   -1.5000    0.0000    0.0000 C   0  0  0  0  0  0  0  0  0  0  0  0
   -0.7500   -1.2990    0.0000 C   0  0  0  0  0  0  0  0  0  0  0  0
    2.9918   -2.7549    0.0000 C   0  0  0  0  0  0  0  0  0  0  0  0
    3.9955   -1.6402    0.0000 O   0  0  0  0  0  0  0  0  0  0  0  0
    8.9559    0.2615    0.0000 C   0  0  0  0  0  0  0  0  0  0  0  0
   10.3263   -0.3486    0.0000 O   0  0  0  0  0  0  0  0  0  0  0  0
  1  2  1  0
  2  3  2  0
  2  4  1  0
  4  5  1  0
  5  6  2  0
  6  7  1  0
  7  8  2  0
  8  9  1  0
  9 10  2  0
  9 11  1  0
 11 12  1  0
 12 13  2  0
 13 14  1  0
 14 15  2  0
 15 16  1  0
 16 17  1  0
 17 18  2  0
 18 19  1  0
 19 20  2  0
 20 21  1  0
 21 22  1  0
 22 23  2  0
 23 24  1  0
 24 25  1  0
 25 26  2  0
 26 27  1  0
 27 28  2  0
 28 29  1  0
 29 30  2  0
 24 31  1  0
 31 32  1  0
 20 33  1  0
 33 34  2  0
  8 35  1  0
 35 36  2  0
 35  5  1  0
 16 12  1  0
 33 17  1  0
 32 21  1  0
 30 25  1  0
M  END
>  <Title>  (176) 
idAAGTgen7

$$$$

     RDKit          2D

 52 59  0  0  0  0  0  0  0  0999 V2000
    3.8166   14.5535    0.0000 C   0  0  0  0  0  0  0  0  0  0  0  0
    2.3166   14.5535    0.0000 C   0  0  0  0  0  0  0  0  0  0  0  0
    1.8036   15.9630    0.0000 C   0  0  0  0  0  0  0  0  0  0  0  0
    0.5045   16.7130    0.0000 C   0  0  0  0  0  0  0  0  0  0  0  0
   -0.9727   16.4526    0.0000 C   0  0  0  0  0  0  0  0  0  0  0  0
   -0.9727   17.9526    0.0000 C   0  0  0  0  0  0  0  0  0  0  0  0
   -1.9369   19.1016    0.0000 C   0  0  0  0  0  0  0  0  0  0  0  0
   -3.4141   19.3621    0.0000 C   0  0  0  0  0  0  0  0  0  0  0  0
   -4.7131   18.6121    0.0000 C   0  0  0  0  0  0  0  0  0  0  0  0
   -5.2261   17.2026    0.0000 C   0  0  0  0  0  0  0  0  0  0  0  0
   -4.7131   15.7930    0.0000 C   0  0  0  0  0  0  0  0  0  0  0  0
   -3.4141   15.0430    0.0000 C   0  0  0  0  0  0  0  0  0  0  0  0
   -1.9369   15.3035    0.0000 C   0  0  0  0  0  0  0  0  0  0  0  0
   -1.9369   13.8035    0.0000 C   0  0  0  0  0  0  0  0  0  0  0  0
   -3.4141   13.5430    0.0000 C   0  0  0  0  0  0  0  0  0  0  0  0
   -3.9271   12.1335    0.0000 C   0  0  0  0  0  0  0  0  0  0  0  0
   -2.9629   10.9844    0.0000 C   0  0  0  0  0  0  0  0  0  0  0  0
   -3.4759    9.5749    0.0000 C   0  0  0  0  0  0  0  0  0  0  0  0
   -2.5118    8.4258    0.0000 C   0  0  0  0  0  0  0  0  0  0  0  0
   -3.0248    7.0163    0.0000 C   0  0  0  0  0  0  0  0  0  0  0  0
   -1.0345    8.6863    0.0000 C   0  0  0  0  0  0  0  0  0  0  0  0
   -0.3770   10.0345    0.0000 N   0  0  0  0  0  0  0  0  0  0  0  0
    1.1084    9.8257    0.0000 N   0  0  0  0  0  0  0  0  0  0  0  0
    1.3689    8.3485    0.0000 N   0  0  0  0  0  0  0  0  0  0  0  0
    0.0445    7.6443    0.0000 N   0  0  0  0  0  0  0  0  0  0  0  0
   -0.1643    6.1589    0.0000 C   0  0  0  0  0  0  0  0  0  0  0  0
   -1.5551    5.5970    0.0000 C   0  0  0  0  0  0  0  0  0  0  0  0
   -1.7638    4.1116    0.0000 C   0  0  0  0  0  0  0  0  0  0  0  0
   -0.5818    3.1881    0.0000 C   0  0  0  0  0  0  0  0  0  0  0  0
   -0.7906    1.7027    0.0000 C   0  0  0  0  0  0  0  0  0  0  0  0
   -2.1814    1.1408    0.0000 C   0  0  0  0  0  0  0  0  0  0  0  0
   -2.3901   -0.3446    0.0000 C   0  0  0  0  0  0  0  0  0  0  0  0
   -1.2081   -1.2681    0.0000 C   0  0  0  0  0  0  0  0  0  0  0  0
    0.1827   -0.7062    0.0000 C   0  0  0  0  0  0  0  0  0  0  0  0
    0.3914    0.7792    0.0000 C   0  0  0  0  0  0  0  0  0  0  0  0
    0.8090    3.7500    0.0000 C   0  0  0  0  0  0  0  0  0  0  0  0
    1.0177    5.2354    0.0000 C   0  0  0  0  0  0  0  0  0  0  0  0
    2.4085    5.7973    0.0000 C   0  0  0  0  0  0  0  0  0  0  0  0
    2.7714    7.2528    0.0000 N   0  0  0  0  0  0  0  0  0  0  0  0
    4.2677    7.3574    0.0000 N   0  0  0  0  0  0  0  0  0  0  0  0
    4.8296    5.9666    0.0000 N   0  0  0  0  0  0  0  0  0  0  0  0
    3.6806    5.0024    0.0000 N   0  0  0  0  0  0  0  0  0  0  0  0
    3.7852    3.5061    0.0000 C   0  0  0  0  0  0  0  0  0  0  0  0
    2.5416    2.6673    0.0000 C   0  0  0  0  0  0  0  0  0  0  0  0
    2.6463    1.1710    0.0000 C   0  0  0  0  0  0  0  0  0  0  0  0
    3.9945    0.5134    0.0000 C   0  0  0  0  0  0  0  0  0  0  0  0
    5.2380    1.3522    0.0000 C   0  0  0  0  0  0  0  0  0  0  0  0
    5.1334    2.8485    0.0000 C   0  0  0  0  0  0  0  0  0  0  0  0
   -1.4857   11.2449    0.0000 C   0  0  0  0  0  0  0  0  0  0  0  0
   -0.9727   12.6544    0.0000 C   0  0  0  0  0  0  0  0  0  0  0  0
    0.5045   12.3940    0.0000 C   0  0  0  0  0  0  0  0  0  0  0  0
    1.8036   13.1440    0.0000 C   0  0  0  0  0  0  0  0  0  0  0  0
  1  2  1  0
  2  3  2  0
  3  4  1  0
  4  5  2  0
  5  6  1  0
  6  7  2  0
  7  8  1  0
  8  9  2  0
  9 10  1  0
 10 11  2  0
 11 12  1  0
 12 13  2  0
 13 14  1  0
 14 15  2  0
 15 16  1  0
 16 17  2  0
 17 18  1  0
 18 19  2  3
 19 20  1  0
 19 21  1  0
 21 22  2  0
 22 23  1  0
 23 24  2  0
 24 25  1  0
 25 26  1  0
 26 27  2  0
 27 28  1  0
 28 29  2  0
 29 30  1  0
 30 31  2  0
 31 32  1  0
 32 33  2  0
 33 34  1  0
 34 35  2  0
 29 36  1  0
 36 37  2  0
 37 38  1  0
 38 39  2  0
 39 40  1  0
 40 41  2  0
 41 42  1  0
 42 43  1  0
 43 44  2  0
 44 45  1  0
 45 46  2  0
 46 47  1  0
 47 48  2  0
 17 49  1  0
 49 50  2  0
 50 51  1  0
 51 52  2  0
 52  2  1  0
 13  5  1  0
 50 14  1  0
 25 21  1  0
 37 26  1  0
 42 38  1  0
 48 43  1  0
 35 30  1  0
M  END
>  <Title>  (177) 
idAAGUgen7

$$$$

     RDKit          2D

 28 31  0  0  0  0  0  0  0  0999 V2000
    3.0000    0.0000    0.0000 C   0  0  0  0  0  0  0  0  0  0  0  0
    1.5000    0.0000    0.0000 C   0  0  0  0  0  0  0  0  0  0  0  0
    0.7500   -1.2990    0.0000 C   0  0  0  0  0  0  0  0  0  0  0  0
   -0.7500   -1.2990    0.0000 C   0  0  0  0  0  0  0  0  0  0  0  0
   -1.5000    0.0000    0.0000 C   0  0  0  0  0  0  0  0  0  0  0  0
   -0.7500    1.2990    0.0000 C   0  0  0  0  0  0  0  0  0  0  0  0
   -1.5000    2.5981    0.0000 C   0  0  0  0  0  0  0  0  0  0  0  0
   -2.9918    2.7549    0.0000 N   0  0  0  0  0  0  0  0  0  0  0  0
   -3.3037    4.2221    0.0000 N   0  0  0  0  0  0  0  0  0  0  0  0
   -2.0046    4.9721    0.0000 N   0  0  0  0  0  0  0  0  0  0  0  0
   -0.8899    3.9684    0.0000 N   0  0  0  0  0  0  0  0  0  0  0  0
    0.5773    4.2803    0.0000 C   0  0  0  0  0  0  0  0  0  0  0  0
    1.1874    5.6506    0.0000 C   0  0  0  0  0  0  0  0  0  0  0  0
    2.6792    5.4938    0.0000 C   0  0  0  0  0  0  0  0  0  0  0  0
    2.9911    4.0266    0.0000 C   0  0  0  0  0  0  0  0  0  0  0  0
    4.3614    3.4165    0.0000 C   0  0  0  0  0  0  0  0  0  0  0  0
    4.5182    1.9247    0.0000 C   0  0  0  0  0  0  0  0  0  0  0  0
    5.8885    1.3146    0.0000 C   0  0  0  0  0  0  0  0  0  0  0  0
    7.1020    2.1963    0.0000 C   0  0  0  0  0  0  0  0  0  0  0  0
    8.4724    1.5861    0.0000 C   0  0  0  0  0  0  0  0  0  0  0  0
    9.6859    2.4678    0.0000 O   0  0  0  0  0  0  0  0  0  0  0  0
    8.6291    0.0944    0.0000 N   0  0  0  0  0  0  0  0  0  0  0  0
    9.9995   -0.5157    0.0000 O   0  0  0  0  0  0  0  0  0  0  0  0
    6.9452    3.6880    0.0000 C   0  0  0  0  0  0  0  0  0  0  0  0
    5.5749    4.2981    0.0000 C   0  0  0  0  0  0  0  0  0  0  0  0
    1.6920    3.2766    0.0000 C   0  0  0  0  0  0  0  0  0  0  0  0
    1.5353    1.7848    0.0000 O   0  0  0  0  0  0  0  0  0  0  0  0
    0.7500    1.2990    0.0000 C   0  0  0  0  0  0  0  0  0  0  0  0
  1  2  1  0
  2  3  2  0
  3  4  1  0
  4  5  2  0
  5  6  1  0
  6  7  1  0
  7  8  2  0
  8  9  1  0
  9 10  2  0
 10 11  1  0
 11 12  1  0
 12 13  2  0
 13 14  1  0
 14 15  2  0
 15 16  1  0
 16 17  2  0
 17 18  1  0
 18 19  2  0
 19 20  1  0
 20 21  2  0
 20 22  1  0
 22 23  1  0
 19 24  1  0
 24 25  1  0
 15 26  1  0
 26 27  2  0
  6 28  1  0
 28  2  1  0
 11  7  1  0
 26 12  1  0
 25 16  1  0
M  END
>  <Title>  (178) 
idAAGVgen7

$$$$

     RDKit          2D

 15 15  0  0  0  0  0  0  0  0999 V2000
    4.8705    0.0000    0.0000 C   0  0  0  0  0  0  0  0  0  0  0  0
    3.3705    0.0000    0.0000 C   0  0  0  0  0  0  0  0  0  0  0  0
    3.0367   -1.4624    0.0000 C   0  0  0  0  0  0  0  0  0  0  0  0
    2.1015   -2.6351    0.0000 C   0  0  0  0  0  0  0  0  0  0  0  0
    0.7500   -3.2860    0.0000 C   0  0  0  0  0  0  0  0  0  0  0  0
   -0.7500   -3.2860    0.0000 C   0  0  0  0  0  0  0  0  0  0  0  0
   -2.1015   -2.6351    0.0000 C   0  0  0  0  0  0  0  0  0  0  0  0
   -3.0367   -1.4624    0.0000 C   0  0  0  0  0  0  0  0  0  0  0  0
   -3.3705    0.0000    0.0000 C   0  0  0  0  0  0  0  0  0  0  0  0
   -3.0367    1.4624    0.0000 C   0  0  0  0  0  0  0  0  0  0  0  0
   -2.1015    2.6351    0.0000 C   0  0  0  0  0  0  0  0  0  0  0  0
   -0.7500    3.2860    0.0000 C   0  0  0  0  0  0  0  0  0  0  0  0
    0.7500    3.2860    0.0000 C   0  0  0  0  0  0  0  0  0  0  0  0
    2.1015    2.6351    0.0000 C   0  0  0  0  0  0  0  0  0  0  0  0
    3.0367    1.4624    0.0000 C   0  0  0  0  0  0  0  0  0  0  0  0
  1  2  1  0
  2  3  1  0
  3  4  1  0
  4  5  1  0
  5  6  1  0
  6  7  1  0
  7  8  1  0
  8  9  1  0
  9 10  1  0
 10 11  1  0
 11 12  1  0
 12 13  1  0
 13 14  1  0
 14 15  1  0
 15  2  1  0
M  END
>  <Title>  (179) 
idAAGWgen7

$$$$

     RDKit          2D

 28 31  0  0  0  0  0  0  0  0999 V2000
    3.7500   -1.2990    0.0000 C   0  0  0  0  0  0  0  0  0  0  0  0
    3.0000    0.0000    0.0000 O   0  0  0  0  0  0  0  0  0  0  0  0
    1.5000    0.0000    0.0000 C   0  0  0  0  0  0  0  0  0  0  0  0
    0.7500   -1.2990    0.0000 C   0  0  0  0  0  0  0  0  0  0  0  0
   -0.7500   -1.2990    0.0000 C   0  0  0  0  0  0  0  0  0  0  0  0
   -1.5000    0.0000    0.0000 C   0  0  0  0  0  0  0  0  0  0  0  0
   -3.0000    0.0000    0.0000 C   0  0  0  0  0  0  0  0  0  0  0  0
   -3.7500   -1.2990    0.0000 O   0  0  0  0  0  0  0  0  0  0  0  0
   -3.7500    1.2990    0.0000 N   0  0  0  0  0  0  0  0  0  0  0  0
   -5.2500    1.2990    0.0000 C   0  0  0  0  0  0  0  0  0  0  0  0
   -6.1317    0.0855    0.0000 N   0  0  0  0  0  0  0  0  0  0  0  0
   -7.5583    0.5490    0.0000 N   0  0  0  0  0  0  0  0  0  0  0  0
   -7.5583    2.0490    0.0000 N   0  0  0  0  0  0  0  0  0  0  0  0
   -6.1317    2.5126    0.0000 N   0  0  0  0  0  0  0  0  0  0  0  0
   -5.6682    3.9391    0.0000 C   0  0  0  0  0  0  0  0  0  0  0  0
   -4.2009    4.2510    0.0000 C   0  0  0  0  0  0  0  0  0  0  0  0
   -3.7374    5.6776    0.0000 C   0  0  0  0  0  0  0  0  0  0  0  0
   -4.7411    6.7923    0.0000 C   0  0  0  0  0  0  0  0  0  0  0  0
   -4.2776    8.2189    0.0000 C   0  0  0  0  0  0  0  0  0  0  0  0
   -2.8104    8.5308    0.0000 C   0  0  0  0  0  0  0  0  0  0  0  0
   -2.3468    9.9574    0.0000 C   0  0  0  0  0  0  0  0  0  0  0  0
   -3.3505   11.0721    0.0000 C   0  0  0  0  0  0  0  0  0  0  0  0
   -4.8177   10.7602    0.0000 C   0  0  0  0  0  0  0  0  0  0  0  0
   -5.2813    9.3336    0.0000 C   0  0  0  0  0  0  0  0  0  0  0  0
   -6.2083    6.4805    0.0000 C   0  0  0  0  0  0  0  0  0  0  0  0
   -6.6718    5.0539    0.0000 C   0  0  0  0  0  0  0  0  0  0  0  0
   -0.7500    1.2990    0.0000 C   0  0  0  0  0  0  0  0  0  0  0  0
    0.7500    1.2990    0.0000 C   0  0  0  0  0  0  0  0  0  0  0  0
  1  2  1  0
  2  3  1  0
  3  4  2  0
  4  5  1  0
  5  6  2  0
  6  7  1  0
  7  8  2  0
  7  9  1  0
  9 10  1  0
 10 11  2  0
 11 12  1  0
 12 13  2  0
 13 14  1  0
 14 15  1  0
 15 16  2  0
 16 17  1  0
 17 18  2  0
 18 19  1  0
 19 20  2  0
 20 21  1  0
 21 22  2  0
 22 23  1  0
 23 24  2  0
 18 25  1  0
 25 26  2  0
  6 27  1  0
 27 28  2  0
 28  3  1  0
 14 10  1  0
 26 15  1  0
 24 19  1  0
M  END
>  <Title>  (180) 
idAAGXgen7

$$$$

     RDKit          2D

 57 64  0  0  0  0  0  0  0  0999 V2000
    3.0000    0.0000    0.0000 C   0  0  0  0  0  0  0  0  0  0  0  0
    1.5000    0.0000    0.0000 C   0  0  0  0  0  0  0  0  0  0  0  0
    0.7500    1.2990    0.0000 C   0  0  0  0  0  0  0  0  0  0  0  0
   -0.7500    1.2990    0.0000 C   0  0  0  0  0  0  0  0  0  0  0  0
   -1.5000    0.0000    0.0000 C   0  0  0  0  0  0  0  0  0  0  0  0
   -3.0000    0.0000    0.0000 C   0  0  0  0  0  0  0  0  0  0  0  0
   -3.7500   -1.2990    0.0000 O   0  0  0  0  0  0  0  0  0  0  0  0
   -3.7500    1.2990    0.0000 N   0  0  0  0  0  0  0  0  0  0  0  0
   -5.2500    1.2990    0.0000 C   0  0  0  0  0  0  0  0  0  0  0  0
   -6.1317    0.0855    0.0000 N   0  0  0  0  0  0  0  0  0  0  0  0
   -7.5583    0.5490    0.0000 N   0  0  0  0  0  0  0  0  0  0  0  0
   -7.5583    2.0490    0.0000 N   0  0  0  0  0  0  0  0  0  0  0  0
   -6.1317    2.5126    0.0000 N   0  0  0  0  0  0  0  0  0  0  0  0
   -5.6682    3.9391    0.0000 C   0  0  0  0  0  0  0  0  0  0  0  0
   -4.2009    4.2510    0.0000 C   0  0  0  0  0  0  0  0  0  0  0  0
   -3.7374    5.6776    0.0000 C   0  0  0  0  0  0  0  0  0  0  0  0
   -4.7411    6.7923    0.0000 C   0  0  0  0  0  0  0  0  0  0  0  0
   -4.2776    8.2189    0.0000 C   0  0  0  0  0  0  0  0  0  0  0  0
   -5.2813    9.3336    0.0000 O   0  0  0  0  0  0  0  0  0  0  0  0
   -2.8104    8.5308    0.0000 N   0  0  0  0  0  0  0  0  0  0  0  0
   -2.3468    9.9574    0.0000 C   0  0  0  0  0  0  0  0  0  0  0  0
   -3.3505   11.0721    0.0000 O   0  0  0  0  0  0  0  0  0  0  0  0
   -0.8796   10.2692    0.0000 C   0  0  0  0  0  0  0  0  0  0  0  0
    0.2351    9.2655    0.0000 N   0  0  0  0  0  0  0  0  0  0  0  0
    1.5341   10.0155    0.0000 N   0  0  0  0  0  0  0  0  0  0  0  0
    1.2223   11.4827    0.0000 N   0  0  0  0  0  0  0  0  0  0  0  0
   -0.2695   11.6395    0.0000 N   0  0  0  0  0  0  0  0  0  0  0  0
   -1.0195   12.9386    0.0000 C   0  0  0  0  0  0  0  0  0  0  0  0
   -2.5195   12.9386    0.0000 C   0  0  0  0  0  0  0  0  0  0  0  0
   -3.2695   14.2376    0.0000 C   0  0  0  0  0  0  0  0  0  0  0  0
   -2.5195   15.5367    0.0000 C   0  0  0  0  0  0  0  0  0  0  0  0
   -3.2695   16.8357    0.0000 C   0  0  0  0  0  0  0  0  0  0  0  0
   -4.7695   16.8357    0.0000 C   0  0  0  0  0  0  0  0  0  0  0  0
   -5.5195   18.1347    0.0000 C   0  0  0  0  0  0  0  0  0  0  0  0
   -4.7695   19.4338    0.0000 C   0  0  0  0  0  0  0  0  0  0  0  0
   -3.2695   19.4338    0.0000 C   0  0  0  0  0  0  0  0  0  0  0  0
   -2.5195   18.1347    0.0000 C   0  0  0  0  0  0  0  0  0  0  0  0
   -1.0195   15.5367    0.0000 C   0  0  0  0  0  0  0  0  0  0  0  0
   -0.2695   14.2376    0.0000 C   0  0  0  0  0  0  0  0  0  0  0  0
    1.2305   14.2376    0.0000 C   0  0  0  0  0  0  0  0  0  0  0  0
    1.9805   15.5367    0.0000 C   0  0  0  0  0  0  0  0  0  0  0  0
    3.4805   15.5367    0.0000 C   0  0  0  0  0  0  0  0  0  0  0  0
    4.2305   14.2376    0.0000 C   0  0  0  0  0  0  0  0  0  0  0  0
    3.4805   12.9386    0.0000 N   0  0  0  0  0  0  0  0  0  0  0  0
    1.9805   12.9386    0.0000 C   0  0  0  0  0  0  0  0  0  0  0  0
   -6.2083    6.4805    0.0000 C   0  0  0  0  0  0  0  0  0  0  0  0
   -6.6718    5.0539    0.0000 C   0  0  0  0  0  0  0  0  0  0  0  0
   -8.1391    4.7420    0.0000 C   0  0  0  0  0  0  0  0  0  0  0  0
   -9.1428    5.8567    0.0000 C   0  0  0  0  0  0  0  0  0  0  0  0
  -10.6100    5.5448    0.0000 C   0  0  0  0  0  0  0  0  0  0  0  0
  -11.0735    4.1183    0.0000 C   0  0  0  0  0  0  0  0  0  0  0  0
  -12.5407    3.8064    0.0000 C   0  0  0  0  0  0  0  0  0  0  0  0
  -10.0698    3.0035    0.0000 C   0  0  0  0  0  0  0  0  0  0  0  0
  -10.5333    1.5770    0.0000 O   0  0  0  0  0  0  0  0  0  0  0  0
   -8.6026    3.3154    0.0000 N   0  0  0  0  0  0  0  0  0  0  0  0
   -0.7500   -1.2990    0.0000 C   0  0  0  0  0  0  0  0  0  0  0  0
    0.7500   -1.2990    0.0000 C   0  0  0  0  0  0  0  0  0  0  0  0
  1  2  1  0
  2  3  2  0
  3  4  1  0
  4  5  2  0
  5  6  1  0
  6  7  2  0
  6  8  1  0
  8  9  1  0
  9 10  2  0
 10 11  1  0
 11 12  2  0
 12 13  1  0
 13 14  1  0
 14 15  2  0
 15 16  1  0
 16 17  2  0
 17 18  1  0
 18 19  2  0
 18 20  1  0
 20 21  1  0
 21 22  2  0
 21 23  1  0
 23 24  2  0
 24 25  1  0
 25 26  2  0
 26 27  1  0
 27 28  1  0
 28 29  2  0
 29 30  1  0
 30 31  2  0
 31 32  1  0
 32 33  2  0
 33 34  1  0
 34 35  2  0
 35 36  1  0
 36 37  2  0
 31 38  1  0
 38 39  2  0
 39 40  1  0
 40 41  2  0
 41 42  1  0
 42 43  2  0
 43 44  1  0
 44 45  2  0
 17 46  1  0
 46 47  2  0
 47 48  1  0
 48 49  2  0
 49 50  1  0
 50 51  2  0
 51 52  1  0
 51 53  1  0
 53 54  2  0
 53 55  1  0
  5 56  1  0
 56 57  2  0
 57  2  1  0
 13  9  1  0
 47 14  1  0
 55 48  1  0
 27 23  1  0
 39 28  1  0
 45 40  1  0
 37 32  1  0
M  END
>  <Title>  (181) 
idAAGYgen7

$$$$

     RDKit          2D

 21 21  0  0  0  0  0  0  0  0999 V2000
    6.8067   -1.2990    0.0000 C   0  0  0  0  0  0  0  0  0  0  0  0
    6.0567    0.0000    0.0000 O   0  0  0  0  0  0  0  0  0  0  0  0
    4.5567    0.0000    0.0000 C   0  0  0  0  0  0  0  0  0  0  0  0
    4.3098    1.4795    0.0000 C   0  0  0  0  0  0  0  0  0  0  0  0
    3.5958    2.7988    0.0000 C   0  0  0  0  0  0  0  0  0  0  0  0
    2.4923    3.8147    0.0000 C   0  0  0  0  0  0  0  0  0  0  0  0
    1.1186    4.4172    0.0000 C   0  0  0  0  0  0  0  0  0  0  0  0
   -0.3763    4.5411    0.0000 C   0  0  0  0  0  0  0  0  0  0  0  0
   -1.8304    4.1729    0.0000 C   0  0  0  0  0  0  0  0  0  0  0  0
   -3.0861    3.3524    0.0000 C   0  0  0  0  0  0  0  0  0  0  0  0
   -4.0075    2.1687    0.0000 C   0  0  0  0  0  0  0  0  0  0  0  0
   -4.4945    0.7500    0.0000 C   0  0  0  0  0  0  0  0  0  0  0  0
   -4.4945   -0.7500    0.0000 C   0  0  0  0  0  0  0  0  0  0  0  0
   -4.0075   -2.1687    0.0000 C   0  0  0  0  0  0  0  0  0  0  0  0
   -3.0861   -3.3524    0.0000 C   0  0  0  0  0  0  0  0  0  0  0  0
   -1.8304   -4.1729    0.0000 C   0  0  0  0  0  0  0  0  0  0  0  0
   -0.3763   -4.5411    0.0000 C   0  0  0  0  0  0  0  0  0  0  0  0
    1.1186   -4.4172    0.0000 C   0  0  0  0  0  0  0  0  0  0  0  0
    2.4923   -3.8147    0.0000 C   0  0  0  0  0  0  0  0  0  0  0  0
    3.5958   -2.7988    0.0000 C   0  0  0  0  0  0  0  0  0  0  0  0
    4.3098   -1.4795    0.0000 C   0  0  0  0  0  0  0  0  0  0  0  0
  1  2  1  0
  2  3  1  0
  3  4  1  0
  4  5  2  0
  5  6  1  0
  6  7  2  0
  7  8  1  0
  8  9  2  0
  9 10  1  0
 10 11  2  0
 11 12  1  0
 12 13  2  0
 13 14  1  0
 14 15  2  0
 15 16  1  0
 16 17  2  0
 17 18  1  0
 18 19  1  0
 19 20  1  0
 20 21  1  0
 21  3  1  0
M  END
>  <Title>  (182) 
idAAGZgen7

$$$$

     RDKit          2D

 24 27  0  0  0  0  0  0  0  0999 V2000
    3.0000    0.0000    0.0000 O   0  0  0  0  0  0  0  0  0  0  0  0
    1.5000    0.0000    0.0000 C   0  0  0  0  0  0  0  0  0  0  0  0
    0.7500   -1.2990    0.0000 C   0  0  0  0  0  0  0  0  0  0  0  0
   -0.7500   -1.2990    0.0000 C   0  0  0  0  0  0  0  0  0  0  0  0
   -1.5000    0.0000    0.0000 C   0  0  0  0  0  0  0  0  0  0  0  0
   -3.0000    0.0000    0.0000 C   0  0  0  0  0  0  0  0  0  0  0  0
   -3.8817   -1.2135    0.0000 C   0  0  0  0  0  0  0  0  0  0  0  0
   -5.3083   -0.7500    0.0000 C   0  0  0  0  0  0  0  0  0  0  0  0
   -5.3083    0.7500    0.0000 N   0  0  0  0  0  0  0  0  0  0  0  0
   -3.8817    1.2135    0.0000 N   0  0  0  0  0  0  0  0  0  0  0  0
   -3.4182    2.6401    0.0000 C   0  0  0  0  0  0  0  0  0  0  0  0
   -1.9509    2.9520    0.0000 C   0  0  0  0  0  0  0  0  0  0  0  0
   -1.4874    4.3786    0.0000 C   0  0  0  0  0  0  0  0  0  0  0  0
   -2.4911    5.4933    0.0000 C   0  0  0  0  0  0  0  0  0  0  0  0
   -2.0276    6.9199    0.0000 C   0  0  0  0  0  0  0  0  0  0  0  0
   -0.5604    7.2317    0.0000 C   0  0  0  0  0  0  0  0  0  0  0  0
   -0.0968    8.6583    0.0000 C   0  0  0  0  0  0  0  0  0  0  0  0
   -1.1005    9.7730    0.0000 C   0  0  0  0  0  0  0  0  0  0  0  0
   -2.5677    9.4612    0.0000 C   0  0  0  0  0  0  0  0  0  0  0  0
   -3.0313    8.0346    0.0000 C   0  0  0  0  0  0  0  0  0  0  0  0
   -3.9583    5.1814    0.0000 C   0  0  0  0  0  0  0  0  0  0  0  0
   -4.4218    3.7548    0.0000 C   0  0  0  0  0  0  0  0  0  0  0  0
   -0.7500    1.2990    0.0000 N   0  0  0  0  0  0  0  0  0  0  0  0
    0.7500    1.2990    0.0000 C   0  0  0  0  0  0  0  0  0  0  0  0
  1  2  1  0
  2  3  2  0
  3  4  1  0
  4  5  2  0
  5  6  1  0
  6  7  2  0
  7  8  1  0
  8  9  2  0
  9 10  1  0
 10 11  1  0
 11 12  2  0
 12 13  1  0
 13 14  2  0
 14 15  1  0
 15 16  2  0
 16 17  1  0
 17 18  2  0
 18 19  1  0
 19 20  2  0
 14 21  1  0
 21 22  1  0
  5 23  1  0
 23 24  1  0
 24  2  1  0
 10  6  1  0
 22 11  1  0
 20 15  1  0
M  END
>  <Title>  (183) 
idAAHAgen7

$$$$

     RDKit          2D

 25 28  0  0  0  0  0  0  0  0999 V2000
  -10.1624    4.2767    0.0000 C   0  0  0  0  0  0  0  0  0  0  0  0
   -8.9488    3.3950    0.0000 C   0  0  0  0  0  0  0  0  0  0  0  0
   -9.1056    1.9033    0.0000 C   0  0  0  0  0  0  0  0  0  0  0  0
   -7.8921    1.0216    0.0000 C   0  0  0  0  0  0  0  0  0  0  0  0
   -6.5218    1.6317    0.0000 C   0  0  0  0  0  0  0  0  0  0  0  0
   -5.3083    0.7500    0.0000 C   0  0  0  0  0  0  0  0  0  0  0  0
   -5.3083   -0.7500    0.0000 N   0  0  0  0  0  0  0  0  0  0  0  0
   -3.8817   -1.2135    0.0000 N   0  0  0  0  0  0  0  0  0  0  0  0
   -3.0000    0.0000    0.0000 N   0  0  0  0  0  0  0  0  0  0  0  0
   -3.8817    1.2135    0.0000 N   0  0  0  0  0  0  0  0  0  0  0  0
   -3.4182    2.6401    0.0000 C   0  0  0  0  0  0  0  0  0  0  0  0
   -4.2998    3.8536    0.0000 C   0  0  0  0  0  0  0  0  0  0  0  0
   -3.4182    5.0672    0.0000 N   0  0  0  0  0  0  0  0  0  0  0  0
   -1.9916    4.6036    0.0000 N   0  0  0  0  0  0  0  0  0  0  0  0
   -1.9916    3.1036    0.0000 N   0  0  0  0  0  0  0  0  0  0  0  0
   -0.7780    2.2220    0.0000 C   0  0  0  0  0  0  0  0  0  0  0  0
   -0.9348    0.7302    0.0000 C   0  0  0  0  0  0  0  0  0  0  0  0
    0.2787   -0.1515    0.0000 C   0  0  0  0  0  0  0  0  0  0  0  0
    1.6490    0.4586    0.0000 C   0  0  0  0  0  0  0  0  0  0  0  0
    2.8625   -0.4231    0.0000 C   0  0  0  0  0  0  0  0  0  0  0  0
    1.8058    1.9504    0.0000 C   0  0  0  0  0  0  0  0  0  0  0  0
    3.1761    2.5605    0.0000 O   0  0  0  0  0  0  0  0  0  0  0  0
    0.5923    2.8321    0.0000 N   0  0  0  0  0  0  0  0  0  0  0  0
   -6.3650    3.1235    0.0000 N   0  0  0  0  0  0  0  0  0  0  0  0
   -7.5785    4.0051    0.0000 C   0  0  0  0  0  0  0  0  0  0  0  0
  1  2  1  0
  2  3  2  0
  3  4  1  0
  4  5  2  0
  5  6  1  0
  6  7  2  0
  7  8  1  0
  8  9  2  0
  9 10  1  0
 10 11  1  0
 11 12  2  0
 12 13  1  0
 13 14  2  0
 14 15  1  0
 15 16  1  0
 16 17  2  0
 17 18  1  0
 18 19  2  0
 19 20  1  0
 19 21  1  0
 21 22  2  0
 21 23  1  0
  5 24  1  0
 24 25  1  0
 25  2  1  0
 10  6  1  0
 15 11  1  0
 23 16  1  0
M  END
>  <Title>  (184) 
idAAHBgen7

$$$$

     RDKit          2D

 49 55  0  0  0  0  0  0  0  0999 V2000
   -6.9510   -7.2452    0.0000 C   0  0  0  0  0  0  0  0  0  0  0  0
   -8.2500   -6.4952    0.0000 C   0  0  0  0  0  0  0  0  0  0  0  0
   -9.5490   -5.7452    0.0000 C   0  0  0  0  0  0  0  0  0  0  0  0
   -9.0000   -7.7942    0.0000 C   0  0  0  0  0  0  0  0  0  0  0  0
   -7.5000   -5.1962    0.0000 C   0  0  0  0  0  0  0  0  0  0  0  0
   -6.0000   -5.1962    0.0000 C   0  0  0  0  0  0  0  0  0  0  0  0
   -5.2500   -3.8971    0.0000 C   0  0  0  0  0  0  0  0  0  0  0  0
   -6.0000   -2.5981    0.0000 C   0  0  0  0  0  0  0  0  0  0  0  0
   -5.2500   -1.2990    0.0000 C   0  0  0  0  0  0  0  0  0  0  0  0
   -6.0000    0.0000    0.0000 C   0  0  0  0  0  0  0  0  0  0  0  0
   -7.5000    0.0000    0.0000 O   0  0  0  0  0  0  0  0  0  0  0  0
   -5.2500    1.2990    0.0000 N   0  0  0  0  0  0  0  0  0  0  0  0
   -6.0000    2.5981    0.0000 C   0  0  0  0  0  0  0  0  0  0  0  0
   -7.4918    2.7549    0.0000 N   0  0  0  0  0  0  0  0  0  0  0  0
   -7.8037    4.2221    0.0000 N   0  0  0  0  0  0  0  0  0  0  0  0
   -6.5046    4.9721    0.0000 N   0  0  0  0  0  0  0  0  0  0  0  0
   -5.3899    3.9684    0.0000 N   0  0  0  0  0  0  0  0  0  0  0  0
   -3.9227    4.2803    0.0000 C   0  0  0  0  0  0  0  0  0  0  0  0
   -2.9190    3.1655    0.0000 C   0  0  0  0  0  0  0  0  0  0  0  0
   -1.4518    3.4774    0.0000 C   0  0  0  0  0  0  0  0  0  0  0  0
   -0.9882    4.9040    0.0000 C   0  0  0  0  0  0  0  0  0  0  0  0
    0.4790    5.2159    0.0000 C   0  0  0  0  0  0  0  0  0  0  0  0
    1.4827    4.1011    0.0000 C   0  0  0  0  0  0  0  0  0  0  0  0
    2.9499    4.4130    0.0000 C   0  0  0  0  0  0  0  0  0  0  0  0
    3.4134    5.8396    0.0000 C   0  0  0  0  0  0  0  0  0  0  0  0
    4.8807    6.1515    0.0000 C   0  0  0  0  0  0  0  0  0  0  0  0
    5.8844    5.0367    0.0000 C   0  0  0  0  0  0  0  0  0  0  0  0
    7.3516    5.3486    0.0000 C   0  0  0  0  0  0  0  0  0  0  0  0
    7.8151    6.7752    0.0000 C   0  0  0  0  0  0  0  0  0  0  0  0
    6.8114    7.8899    0.0000 C   0  0  0  0  0  0  0  0  0  0  0  0
    5.3442    7.5781    0.0000 C   0  0  0  0  0  0  0  0  0  0  0  0
    2.4097    6.9543    0.0000 C   0  0  0  0  0  0  0  0  0  0  0  0
    0.9425    6.6424    0.0000 C   0  0  0  0  0  0  0  0  0  0  0  0
   -1.9919    6.0187    0.0000 C   0  0  0  0  0  0  0  0  0  0  0  0
   -3.4591    5.7068    0.0000 C   0  0  0  0  0  0  0  0  0  0  0  0
   -4.4628    6.8216    0.0000 C   0  0  0  0  0  0  0  0  0  0  0  0
   -3.9993    8.2481    0.0000 C   0  0  0  0  0  0  0  0  0  0  0  0
   -5.0030    9.3629    0.0000 C   0  0  0  0  0  0  0  0  0  0  0  0
   -6.4702    9.0510    0.0000 C   0  0  0  0  0  0  0  0  0  0  0  0
   -7.4739   10.1657    0.0000 C   0  0  0  0  0  0  0  0  0  0  0  0
   -7.0104   11.5923    0.0000 C   0  0  0  0  0  0  0  0  0  0  0  0
   -8.0141   12.7070    0.0000 C   0  0  0  0  0  0  0  0  0  0  0  0
   -9.4813   12.3952    0.0000 C   0  0  0  0  0  0  0  0  0  0  0  0
   -9.9448   10.9686    0.0000 C   0  0  0  0  0  0  0  0  0  0  0  0
   -8.9412    9.8538    0.0000 C   0  0  0  0  0  0  0  0  0  0  0  0
   -6.9338    7.6244    0.0000 C   0  0  0  0  0  0  0  0  0  0  0  0
   -5.9301    6.5097    0.0000 C   0  0  0  0  0  0  0  0  0  0  0  0
   -7.5000   -2.5981    0.0000 C   0  0  0  0  0  0  0  0  0  0  0  0
   -8.2500   -3.8971    0.0000 C   0  0  0  0  0  0  0  0  0  0  0  0
  1  2  1  0
  2  3  1  0
  2  4  1  0
  2  5  1  0
  5  6  2  0
  6  7  1  0
  7  8  2  0
  8  9  1  0
  9 10  1  0
 10 11  2  0
 10 12  1  0
 12 13  1  0
 13 14  2  0
 14 15  1  0
 15 16  2  0
 16 17  1  0
 17 18  1  0
 18 19  2  0
 19 20  1  0
 20 21  2  0
 21 22  1  0
 22 23  2  0
 23 24  1  0
 24 25  2  0
 25 26  1  0
 26 27  2  0
 27 28  1  0
 28 29  2  0
 29 30  1  0
 30 31  2  0
 25 32  1  0
 32 33  2  0
 21 34  1  0
 34 35  2  0
 35 36  1  0
 36 37  2  0
 37 38  1  0
 38 39  2  0
 39 40  1  0
 40 41  2  0
 41 42  1  0
 42 43  2  0
 43 44  1  0
 44 45  2  0
 39 46  1  0
 46 47  2  0
  8 48  1  0
 48 49  2  0
 49  5  1  0
 17 13  1  0
 35 18  1  0
 47 36  1  0
 33 22  1  0
 45 40  1  0
 31 26  1  0
M  END
>  <Title>  (185) 
idAAHCgen7

$$$$

     RDKit          2D

 23 25  0  0  0  0  0  0  0  0999 V2000
    3.0000    0.0000    0.0000 C   0  0  0  0  0  0  0  0  0  0  0  0
    1.5000    0.0000    0.0000 C   0  0  0  0  0  0  0  0  0  0  0  0
    0.7500   -1.2990    0.0000 C   0  0  0  0  0  0  0  0  0  0  0  0
   -0.7500   -1.2990    0.0000 C   0  0  0  0  0  0  0  0  0  0  0  0
   -1.5000    0.0000    0.0000 C   0  0  0  0  0  0  0  0  0  0  0  0
   -3.0000    0.0000    0.0000 C   0  0  0  0  0  0  0  0  0  0  0  0
   -3.7500   -1.2990    0.0000 O   0  0  0  0  0  0  0  0  0  0  0  0
   -3.7500    1.2990    0.0000 N   0  0  0  0  0  0  0  0  0  0  0  0
   -5.2500    1.2990    0.0000 C   0  0  0  0  0  0  0  0  0  0  0  0
   -6.1317    0.0855    0.0000 C   0  0  0  0  0  0  0  0  0  0  0  0
   -7.5583    0.5490    0.0000 C   0  0  0  0  0  0  0  0  0  0  0  0
   -7.5583    2.0490    0.0000 C   0  0  0  0  0  0  0  0  0  0  0  0
   -8.7718    2.9307    0.0000 C   0  0  0  0  0  0  0  0  0  0  0  0
   -8.6150    4.4225    0.0000 C   0  0  0  0  0  0  0  0  0  0  0  0
   -9.8285    5.3042    0.0000 C   0  0  0  0  0  0  0  0  0  0  0  0
  -11.1988    4.6941    0.0000 C   0  0  0  0  0  0  0  0  0  0  0  0
  -11.3556    3.2023    0.0000 C   0  0  0  0  0  0  0  0  0  0  0  0
  -10.1421    2.3206    0.0000 C   0  0  0  0  0  0  0  0  0  0  0  0
   -6.1317    2.5126    0.0000 C   0  0  0  0  0  0  0  0  0  0  0  0
   -5.6682    3.9391    0.0000 O   0  0  0  0  0  0  0  0  0  0  0  0
   -0.7500    1.2990    0.0000 C   0  0  0  0  0  0  0  0  0  0  0  0
   -1.5000    2.5981    0.0000 O   0  0  0  0  0  0  0  0  0  0  0  0
    0.7500    1.2990    0.0000 N   0  0  0  0  0  0  0  0  0  0  0  0
  1  2  1  0
  2  3  2  0
  3  4  1  0
  4  5  2  0
  5  6  1  0
  6  7  2  0
  6  8  1  0
  8  9  1  0
  9 10  2  0
 10 11  1  0
 11 12  2  0
 12 13  1  0
 13 14  2  0
 14 15  1  0
 15 16  2  0
 16 17  1  0
 17 18  2  0
 12 19  1  0
 19 20  2  0
  5 21  1  0
 21 22  2  0
 21 23  1  0
 23  2  1  0
 19  9  1  0
 18 13  1  0
M  END
>  <Title>  (186) 
idAAHDgen7

$$$$

     RDKit          2D

 30 34  0  0  0  0  0  0  0  0999 V2000
    3.0000   -0.0000    0.0000 C   0  0  0  0  0  0  0  0  0  0  0  0
    1.5000   -0.0000    0.0000 C   0  0  0  0  0  0  0  0  0  0  0  0
    0.7500   -1.2990    0.0000 N   0  0  0  0  0  0  0  0  0  0  0  0
   -0.7500   -1.2990    0.0000 C   0  0  0  0  0  0  0  0  0  0  0  0
   -1.5000   -2.5981    0.0000 N   0  0  0  0  0  0  0  0  0  0  0  0
   -0.8899   -3.9684    0.0000 N   0  0  0  0  0  0  0  0  0  0  0  0
   -2.0046   -4.9721    0.0000 N   0  0  0  0  0  0  0  0  0  0  0  0
   -3.3037   -4.2221    0.0000 C   0  0  0  0  0  0  0  0  0  0  0  0
   -2.9918   -2.7549    0.0000 C   0  0  0  0  0  0  0  0  0  0  0  0
   -3.9955   -1.6402    0.0000 N   0  0  0  0  0  0  0  0  0  0  0  0
   -3.6836   -0.1729    0.0000 N   0  0  0  0  0  0  0  0  0  0  0  0
   -4.9826    0.5771    0.0000 N   0  0  0  0  0  0  0  0  0  0  0  0
   -6.0974   -0.4266    0.0000 N   0  0  0  0  0  0  0  0  0  0  0  0
   -5.4873   -1.7969    0.0000 C   0  0  0  0  0  0  0  0  0  0  0  0
   -6.2373   -3.0960    0.0000 C   0  0  0  0  0  0  0  0  0  0  0  0
   -5.4873   -4.3950    0.0000 C   0  0  0  0  0  0  0  0  0  0  0  0
   -6.2373   -5.6941    0.0000 C   0  0  0  0  0  0  0  0  0  0  0  0
   -7.7373   -5.6941    0.0000 C   0  0  0  0  0  0  0  0  0  0  0  0
   -8.4873   -6.9931    0.0000 C   0  0  0  0  0  0  0  0  0  0  0  0
   -8.4873   -4.3950    0.0000 C   0  0  0  0  0  0  0  0  0  0  0  0
   -7.7373   -3.0960    0.0000 C   0  0  0  0  0  0  0  0  0  0  0  0
   -1.5000   -0.0000    0.0000 C   0  0  0  0  0  0  0  0  0  0  0  0
   -0.7500    1.2990    0.0000 C   0  0  0  0  0  0  0  0  0  0  0  0
    0.7500    1.2990    0.0000 C   0  0  0  0  0  0  0  0  0  0  0  0
    1.5000    2.5981    0.0000 C   0  0  0  0  0  0  0  0  0  0  0  0
    3.0000    2.5981    0.0000 C   0  0  0  0  0  0  0  0  0  0  0  0
    3.7500    3.8971    0.0000 C   0  0  0  0  0  0  0  0  0  0  0  0
    3.0000    5.1962    0.0000 C   0  0  0  0  0  0  0  0  0  0  0  0
    1.5000    5.1962    0.0000 C   0  0  0  0  0  0  0  0  0  0  0  0
    0.7500    3.8971    0.0000 C   0  0  0  0  0  0  0  0  0  0  0  0
  1  2  2  0
  2  3  1  0
  3  4  1  0
  4  5  1  0
  5  6  1  0
  6  7  2  0
  7  8  1  0
  8  9  2  0
  9 10  1  0
 10 11  1  0
 11 12  2  0
 12 13  1  0
 13 14  2  0
 14 15  1  0
 15 16  2  0
 16 17  1  0
 17 18  2  0
 18 19  1  0
 18 20  1  0
 20 21  2  0
  4 22  2  0
 22 23  1  0
 23 24  2  0
 24 25  1  0
 25 26  2  0
 26 27  1  0
 27 28  2  0
 28 29  1  0
 29 30  2  0
 24  2  1  0
 30 25  1  0
  9  5  1  0
 14 10  1  0
 21 15  1  0
M  END
>  <Title>  (187) 
idAAHEgen7

$$$$

     RDKit          2D

 17 17  0  0  0  0  0  0  0  0999 V2000
    5.3444    0.0000    0.0000 C   0  0  0  0  0  0  0  0  0  0  0  0
    3.8444    0.0000    0.0000 C   0  0  0  0  0  0  0  0  0  0  0  0
    3.5517   -1.4712    0.0000 C   0  0  0  0  0  0  0  0  0  0  0  0
    2.7184   -2.7184    0.0000 C   0  0  0  0  0  0  0  0  0  0  0  0
    1.4712   -3.5517    0.0000 C   0  0  0  0  0  0  0  0  0  0  0  0
   -0.0000   -3.8444    0.0000 C   0  0  0  0  0  0  0  0  0  0  0  0
   -1.4712   -3.5517    0.0000 C   0  0  0  0  0  0  0  0  0  0  0  0
   -2.7184   -2.7184    0.0000 C   0  0  0  0  0  0  0  0  0  0  0  0
   -3.5517   -1.4712    0.0000 C   0  0  0  0  0  0  0  0  0  0  0  0
   -3.8444    0.0000    0.0000 C   0  0  0  0  0  0  0  0  0  0  0  0
   -3.5517    1.4712    0.0000 C   0  0  0  0  0  0  0  0  0  0  0  0
   -2.7184    2.7184    0.0000 C   0  0  0  0  0  0  0  0  0  0  0  0
   -1.4712    3.5517    0.0000 C   0  0  0  0  0  0  0  0  0  0  0  0
    0.0000    3.8444    0.0000 C   0  0  0  0  0  0  0  0  0  0  0  0
    1.4712    3.5517    0.0000 C   0  0  0  0  0  0  0  0  0  0  0  0
    2.7184    2.7184    0.0000 C   0  0  0  0  0  0  0  0  0  0  0  0
    3.5517    1.4712    0.0000 C   0  0  0  0  0  0  0  0  0  0  0  0
  1  2  1  0
  2  3  2  0
  3  4  1  0
  4  5  2  0
  5  6  1  0
  6  7  2  0
  7  8  1  0
  8  9  2  0
  9 10  1  0
 10 11  2  0
 11 12  1  0
 12 13  2  0
 13 14  1  0
 14 15  2  0
 15 16  1  0
 16 17  2  0
 17  2  1  0
M  END
>  <Title>  (188) 
idAAHFgen7

$$$$

     RDKit          2D

 33 37  0  0  0  0  0  0  0  0999 V2000
    3.0000    0.0000    0.0000 C   0  0  0  0  0  0  0  0  0  0  0  0
    1.5000    0.0000    0.0000 C   0  0  0  0  0  0  0  0  0  0  0  0
    0.7500    1.2990    0.0000 C   0  0  0  0  0  0  0  0  0  0  0  0
   -0.7500    1.2990    0.0000 C   0  0  0  0  0  0  0  0  0  0  0  0
   -1.5000    0.0000    0.0000 C   0  0  0  0  0  0  0  0  0  0  0  0
   -3.0000    0.0000    0.0000 C   0  0  0  0  0  0  0  0  0  0  0  0
   -3.8817   -1.2135    0.0000 N   0  0  0  0  0  0  0  0  0  0  0  0
   -5.3083   -0.7500    0.0000 N   0  0  0  0  0  0  0  0  0  0  0  0
   -5.3083    0.7500    0.0000 N   0  0  0  0  0  0  0  0  0  0  0  0
   -3.8817    1.2135    0.0000 N   0  0  0  0  0  0  0  0  0  0  0  0
   -3.4182    2.6401    0.0000 C   0  0  0  0  0  0  0  0  0  0  0  0
   -1.9509    2.9520    0.0000 C   0  0  0  0  0  0  0  0  0  0  0  0
   -1.4874    4.3786    0.0000 C   0  0  0  0  0  0  0  0  0  0  0  0
   -2.4911    5.4933    0.0000 C   0  0  0  0  0  0  0  0  0  0  0  0
   -2.0276    6.9199    0.0000 C   0  0  0  0  0  0  0  0  0  0  0  0
   -0.5604    7.2317    0.0000 C   0  0  0  0  0  0  0  0  0  0  0  0
   -0.0968    8.6583    0.0000 C   0  0  0  0  0  0  0  0  0  0  0  0
   -1.1005    9.7730    0.0000 C   0  0  0  0  0  0  0  0  0  0  0  0
   -2.5677    9.4612    0.0000 C   0  0  0  0  0  0  0  0  0  0  0  0
   -3.0313    8.0346    0.0000 C   0  0  0  0  0  0  0  0  0  0  0  0
   -3.9583    5.1814    0.0000 C   0  0  0  0  0  0  0  0  0  0  0  0
   -4.4218    3.7548    0.0000 C   0  0  0  0  0  0  0  0  0  0  0  0
   -5.8891    3.4430    0.0000 C   0  0  0  0  0  0  0  0  0  0  0  0
   -6.8928    4.5577    0.0000 C   0  0  0  0  0  0  0  0  0  0  0  0
   -8.3600    4.2458    0.0000 C   0  0  0  0  0  0  0  0  0  0  0  0
   -8.8235    2.8192    0.0000 C   0  0  0  0  0  0  0  0  0  0  0  0
  -10.2907    2.5074    0.0000 C   0  0  0  0  0  0  0  0  0  0  0  0
   -7.8198    1.7045    0.0000 C   0  0  0  0  0  0  0  0  0  0  0  0
   -8.2833    0.2779    0.0000 O   0  0  0  0  0  0  0  0  0  0  0  0
   -6.3526    2.0164    0.0000 N   0  0  0  0  0  0  0  0  0  0  0  0
   -0.7500   -1.2990    0.0000 C   0  0  0  0  0  0  0  0  0  0  0  0
   -1.5000   -2.5981    0.0000 O   0  0  0  0  0  0  0  0  0  0  0  0
    0.7500   -1.2990    0.0000 N   0  0  0  0  0  0  0  0  0  0  0  0
  1  2  1  0
  2  3  2  0
  3  4  1  0
  4  5  2  0
  5  6  1  0
  6  7  2  0
  7  8  1  0
  8  9  2  0
  9 10  1  0
 10 11  1  0
 11 12  2  0
 12 13  1  0
 13 14  2  0
 14 15  1  0
 15 16  2  0
 16 17  1  0
 17 18  2  0
 18 19  1  0
 19 20  2  0
 14 21  1  0
 21 22  2  0
 22 23  1  0
 23 24  2  0
 24 25  1  0
 25 26  2  0
 26 27  1  0
 26 28  1  0
 28 29  2  0
 28 30  1  0
  5 31  1  0
 31 32  2  0
 31 33  1  0
 33  2  1  0
 10  6  1  0
 22 11  1  0
 30 23  1  0
 20 15  1  0
M  END
>  <Title>  (189) 
idAAHGgen7

$$$$

     RDKit          2D

 23 25  0  0  0  0  0  0  0  0999 V2000
    3.7500   -1.2990    0.0000 C   0  0  0  0  0  0  0  0  0  0  0  0
    3.0000    0.0000    0.0000 O   0  0  0  0  0  0  0  0  0  0  0  0
    1.5000    0.0000    0.0000 C   0  0  0  0  0  0  0  0  0  0  0  0
    0.7500   -1.2990    0.0000 C   0  0  0  0  0  0  0  0  0  0  0  0
   -0.7500   -1.2990    0.0000 C   0  0  0  0  0  0  0  0  0  0  0  0
   -1.5000    0.0000    0.0000 C   0  0  0  0  0  0  0  0  0  0  0  0
   -3.0000    0.0000    0.0000 C   0  0  0  0  0  0  0  0  0  0  0  0
   -3.8817   -1.2135    0.0000 C   0  0  0  0  0  0  0  0  0  0  0  0
   -5.3083   -0.7500    0.0000 N   0  0  0  0  0  0  0  0  0  0  0  0
   -5.3083    0.7500    0.0000 N   0  0  0  0  0  0  0  0  0  0  0  0
   -3.8817    1.2135    0.0000 N   0  0  0  0  0  0  0  0  0  0  0  0
   -3.4182    2.6401    0.0000 C   0  0  0  0  0  0  0  0  0  0  0  0
   -1.9509    2.9520    0.0000 C   0  0  0  0  0  0  0  0  0  0  0  0
   -1.4874    4.3786    0.0000 C   0  0  0  0  0  0  0  0  0  0  0  0
   -2.4911    5.4933    0.0000 C   0  0  0  0  0  0  0  0  0  0  0  0
   -2.0276    6.9199    0.0000 C   0  0  0  0  0  0  0  0  0  0  0  0
   -3.0313    8.0346    0.0000 O   0  0  0  0  0  0  0  0  0  0  0  0
   -0.5604    7.2317    0.0000 N   0  0  0  0  0  0  0  0  0  0  0  0
   -0.0968    8.6583    0.0000 O   0  0  0  0  0  0  0  0  0  0  0  0
   -3.9583    5.1814    0.0000 C   0  0  0  0  0  0  0  0  0  0  0  0
   -4.4218    3.7548    0.0000 C   0  0  0  0  0  0  0  0  0  0  0  0
   -0.7500    1.2990    0.0000 C   0  0  0  0  0  0  0  0  0  0  0  0
    0.7500    1.2990    0.0000 C   0  0  0  0  0  0  0  0  0  0  0  0
  1  2  1  0
  2  3  1  0
  3  4  2  0
  4  5  1  0
  5  6  2  0
  6  7  1  0
  7  8  2  0
  8  9  1  0
  9 10  2  0
 10 11  1  0
 11 12  1  0
 12 13  2  0
 13 14  1  0
 14 15  2  0
 15 16  1  0
 16 17  2  0
 16 18  1  0
 18 19  1  0
 15 20  1  0
 20 21  1  0
  6 22  1  0
 22 23  2  0
 23  3  1  0
 11  7  1  0
 21 12  1  0
M  END
>  <Title>  (190) 
idAAHHgen7

$$$$

     RDKit          2D

 53 59  0  0  0  0  0  0  0  0999 V2000
    3.0000    0.0000    0.0000 C   0  0  0  0  0  0  0  0  0  0  0  0
    1.5000    0.0000    0.0000 C   0  0  0  0  0  0  0  0  0  0  0  0
    0.7500   -1.2990    0.0000 C   0  0  0  0  0  0  0  0  0  0  0  0
   -0.7500   -1.2990    0.0000 C   0  0  0  0  0  0  0  0  0  0  0  0
   -1.5000    0.0000    0.0000 C   0  0  0  0  0  0  0  0  0  0  0  0
   -3.0000    0.0000    0.0000 C   0  0  0  0  0  0  0  0  0  0  0  0
   -3.7500   -1.2990    0.0000 O   0  0  0  0  0  0  0  0  0  0  0  0
   -3.7500    1.2990    0.0000 N   0  0  0  0  0  0  0  0  0  0  0  0
   -5.2500    1.2990    0.0000 C   0  0  0  0  0  0  0  0  0  0  0  0
   -6.1317    0.0855    0.0000 N   0  0  0  0  0  0  0  0  0  0  0  0
   -7.5583    0.5490    0.0000 N   0  0  0  0  0  0  0  0  0  0  0  0
   -7.5583    2.0490    0.0000 N   0  0  0  0  0  0  0  0  0  0  0  0
   -6.1317    2.5126    0.0000 N   0  0  0  0  0  0  0  0  0  0  0  0
   -5.6682    3.9391    0.0000 C   0  0  0  0  0  0  0  0  0  0  0  0
   -4.2009    4.2510    0.0000 C   0  0  0  0  0  0  0  0  0  0  0  0
   -3.7374    5.6776    0.0000 C   0  0  0  0  0  0  0  0  0  0  0  0
   -4.7411    6.7923    0.0000 C   0  0  0  0  0  0  0  0  0  0  0  0
   -4.2776    8.2189    0.0000 C   0  0  0  0  0  0  0  0  0  0  0  0
   -5.2813    9.3336    0.0000 O   0  0  0  0  0  0  0  0  0  0  0  0
   -2.8104    8.5308    0.0000 N   0  0  0  0  0  0  0  0  0  0  0  0
   -2.3468    9.9574    0.0000 C   0  0  0  0  0  0  0  0  0  0  0  0
   -3.2285   11.1709    0.0000 N   0  0  0  0  0  0  0  0  0  0  0  0
   -2.3468   12.3844    0.0000 N   0  0  0  0  0  0  0  0  0  0  0  0
   -0.9202   11.9209    0.0000 N   0  0  0  0  0  0  0  0  0  0  0  0
   -0.9202   10.4209    0.0000 N   0  0  0  0  0  0  0  0  0  0  0  0
    0.2933    9.5392    0.0000 C   0  0  0  0  0  0  0  0  0  0  0  0
    0.1365    8.0474    0.0000 C   0  0  0  0  0  0  0  0  0  0  0  0
    1.3500    7.1657    0.0000 C   0  0  0  0  0  0  0  0  0  0  0  0
    2.7203    7.7758    0.0000 C   0  0  0  0  0  0  0  0  0  0  0  0
    3.9339    6.8942    0.0000 C   0  0  0  0  0  0  0  0  0  0  0  0
    3.7771    5.4024    0.0000 C   0  0  0  0  0  0  0  0  0  0  0  0
    4.9906    4.5207    0.0000 C   0  0  0  0  0  0  0  0  0  0  0  0
    6.3609    5.1308    0.0000 C   0  0  0  0  0  0  0  0  0  0  0  0
    6.5177    6.6226    0.0000 C   0  0  0  0  0  0  0  0  0  0  0  0
    5.3042    7.5043    0.0000 C   0  0  0  0  0  0  0  0  0  0  0  0
    2.8771    9.2676    0.0000 C   0  0  0  0  0  0  0  0  0  0  0  0
    1.6636   10.1493    0.0000 C   0  0  0  0  0  0  0  0  0  0  0  0
    1.8204   11.6411    0.0000 C   0  0  0  0  0  0  0  0  0  0  0  0
    3.1907   12.2512    0.0000 C   0  0  0  0  0  0  0  0  0  0  0  0
    3.3475   13.7430    0.0000 C   0  0  0  0  0  0  0  0  0  0  0  0
    2.1340   14.6247    0.0000 C   0  0  0  0  0  0  0  0  0  0  0  0
    2.2908   16.1164    0.0000 C   0  0  0  0  0  0  0  0  0  0  0  0
    1.0772   16.9981    0.0000 O   0  0  0  0  0  0  0  0  0  0  0  0
    3.6611   16.7265    0.0000 N   0  0  0  0  0  0  0  0  0  0  0  0
    3.8179   18.2183    0.0000 O   0  0  0  0  0  0  0  0  0  0  0  0
    0.7637   14.0146    0.0000 C   0  0  0  0  0  0  0  0  0  0  0  0
    0.6069   12.5228    0.0000 C   0  0  0  0  0  0  0  0  0  0  0  0
   -6.2083    6.4805    0.0000 C   0  0  0  0  0  0  0  0  0  0  0  0
   -7.2120    7.5952    0.0000 O   0  0  0  0  0  0  0  0  0  0  0  0
   -6.6718    5.0539    0.0000 N   0  0  0  0  0  0  0  0  0  0  0  0
   -0.7500    1.2990    0.0000 C   0  0  0  0  0  0  0  0  0  0  0  0
   -1.5000    2.5981    0.0000 O   0  0  0  0  0  0  0  0  0  0  0  0
    0.7500    1.2990    0.0000 N   0  0  0  0  0  0  0  0  0  0  0  0
  1  2  1  0
  2  3  2  0
  3  4  1  0
  4  5  2  0
  5  6  1  0
  6  7  2  0
  6  8  1  0
  8  9  1  0
  9 10  2  0
 10 11  1  0
 11 12  2  0
 12 13  1  0
 13 14  1  0
 14 15  2  0
 15 16  1  0
 16 17  2  0
 17 18  1  0
 18 19  2  0
 18 20  1  0
 20 21  1  0
 21 22  2  0
 22 23  1  0
 23 24  2  0
 24 25  1  0
 25 26  1  0
 26 27  2  0
 27 28  1  0
 28 29  2  0
 29 30  1  0
 30 31  2  0
 31 32  1  0
 32 33  2  0
 33 34  1  0
 34 35  2  0
 29 36  1  0
 36 37  2  0
 37 38  1  0
 38 39  2  0
 39 40  1  0
 40 41  2  0
 41 42  1  0
 42 43  2  0
 42 44  1  0
 44 45  1  0
 41 46  1  0
 46 47  1  0
 17 48  1  0
 48 49  2  0
 48 50  1  0
  5 51  1  0
 51 52  2  0
 51 53  1  0
 53  2  1  0
 13  9  1  0
 50 14  1  0
 25 21  1  0
 37 26  1  0
 47 38  1  0
 35 30  1  0
M  END
>  <Title>  (191) 
idAAHIgen7

$$$$

     RDKit          2D

 22 24  0  0  0  0  0  0  0  0999 V2000
    3.0000    0.0000    0.0000 C   0  0  0  0  0  0  0  0  0  0  0  0
    1.5000    0.0000    0.0000 C   0  0  0  0  0  0  0  0  0  0  0  0
    0.7500   -1.2990    0.0000 C   0  0  0  0  0  0  0  0  0  0  0  0
   -0.7500   -1.2990    0.0000 C   0  0  0  0  0  0  0  0  0  0  0  0
   -1.5000    0.0000    0.0000 C   0  0  0  0  0  0  0  0  0  0  0  0
   -3.0000    0.0000    0.0000 C   0  0  0  0  0  0  0  0  0  0  0  0
   -3.7500   -1.2990    0.0000 O   0  0  0  0  0  0  0  0  0  0  0  0
   -3.7500    1.2990    0.0000 N   0  0  0  0  0  0  0  0  0  0  0  0
   -5.2500    1.2990    0.0000 C   0  0  0  0  0  0  0  0  0  0  0  0
   -6.1317    0.0855    0.0000 N   0  0  0  0  0  0  0  0  0  0  0  0
   -7.5583    0.5490    0.0000 N   0  0  0  0  0  0  0  0  0  0  0  0
   -7.5583    2.0490    0.0000 N   0  0  0  0  0  0  0  0  0  0  0  0
   -6.1317    2.5126    0.0000 N   0  0  0  0  0  0  0  0  0  0  0  0
   -5.6682    3.9391    0.0000 C   0  0  0  0  0  0  0  0  0  0  0  0
   -4.2009    4.2510    0.0000 C   0  0  0  0  0  0  0  0  0  0  0  0
   -3.7374    5.6776    0.0000 C   0  0  0  0  0  0  0  0  0  0  0  0
   -4.7411    6.7923    0.0000 C   0  0  0  0  0  0  0  0  0  0  0  0
   -6.2083    6.4805    0.0000 C   0  0  0  0  0  0  0  0  0  0  0  0
   -6.6718    5.0539    0.0000 C   0  0  0  0  0  0  0  0  0  0  0  0
   -0.7500    1.2990    0.0000 C   0  0  0  0  0  0  0  0  0  0  0  0
   -1.5000    2.5981    0.0000 O   0  0  0  0  0  0  0  0  0  0  0  0
    0.7500    1.2990    0.0000 N   0  0  0  0  0  0  0  0  0  0  0  0
  1  2  1  0
  2  3  2  0
  3  4  1  0
  4  5  2  0
  5  6  1  0
  6  7  2  0
  6  8  1  0
  8  9  1  0
  9 10  2  0
 10 11  1  0
 11 12  2  0
 12 13  1  0
 13 14  1  0
 14 15  2  0
 15 16  1  0
 16 17  2  0
 17 18  1  0
 18 19  2  0
  5 20  1  0
 20 21  2  0
 20 22  1  0
 22  2  1  0
 13  9  1  0
 19 14  1  0
M  END
>  <Title>  (192) 
idAAHJgen7

$$$$

     RDKit          2D

 23 25  0  0  0  0  0  0  0  0999 V2000
    3.0000    0.0000    0.0000 C   0  0  0  0  0  0  0  0  0  0  0  0
    1.5000    0.0000    0.0000 C   0  0  0  0  0  0  0  0  0  0  0  0
    0.7500   -1.2990    0.0000 C   0  0  0  0  0  0  0  0  0  0  0  0
   -0.7500   -1.2990    0.0000 C   0  0  0  0  0  0  0  0  0  0  0  0
   -1.5000    0.0000    0.0000 C   0  0  0  0  0  0  0  0  0  0  0  0
   -3.0000    0.0000    0.0000 C   0  0  0  0  0  0  0  0  0  0  0  0
   -3.7500   -1.2990    0.0000 O   0  0  0  0  0  0  0  0  0  0  0  0
   -3.7500    1.2990    0.0000 O   0  0  0  0  0  0  0  0  0  0  0  0
   -5.2500    1.2990    0.0000 C   0  0  0  0  0  0  0  0  0  0  0  0
   -6.1317    0.0855    0.0000 N   0  0  0  0  0  0  0  0  0  0  0  0
   -7.5583    0.5490    0.0000 N   0  0  0  0  0  0  0  0  0  0  0  0
   -7.5583    2.0490    0.0000 N   0  0  0  0  0  0  0  0  0  0  0  0
   -6.1317    2.5126    0.0000 N   0  0  0  0  0  0  0  0  0  0  0  0
   -5.6682    3.9391    0.0000 C   0  0  0  0  0  0  0  0  0  0  0  0
   -4.2009    4.2510    0.0000 C   0  0  0  0  0  0  0  0  0  0  0  0
   -3.7374    5.6776    0.0000 C   0  0  0  0  0  0  0  0  0  0  0  0
   -4.7411    6.7923    0.0000 C   0  0  0  0  0  0  0  0  0  0  0  0
   -4.2776    8.2189    0.0000 C   0  0  0  0  0  0  0  0  0  0  0  0
   -6.2083    6.4805    0.0000 C   0  0  0  0  0  0  0  0  0  0  0  0
   -7.2120    7.5952    0.0000 O   0  0  0  0  0  0  0  0  0  0  0  0
   -6.6718    5.0539    0.0000 N   0  0  0  0  0  0  0  0  0  0  0  0
   -0.7500    1.2990    0.0000 N   0  0  0  0  0  0  0  0  0  0  0  0
    0.7500    1.2990    0.0000 C   0  0  0  0  0  0  0  0  0  0  0  0
  1  2  1  0
  2  3  2  0
  3  4  1  0
  4  5  2  0
  5  6  1  0
  6  7  2  0
  6  8  1  0
  8  9  1  0
  9 10  2  0
 10 11  1  0
 11 12  2  0
 12 13  1  0
 13 14  1  0
 14 15  2  0
 15 16  1  0
 16 17  2  0
 17 18  1  0
 17 19  1  0
 19 20  2  0
 19 21  1  0
  5 22  1  0
 22 23  1  0
 23  2  1  0
 13  9  1  0
 21 14  1  0
M  END
>  <Title>  (193) 
idAAHKgen7

$$$$

     RDKit          2D

 19 19  0  0  0  0  0  0  0  0999 V2000
    4.3978   -5.1962    0.0000 C   0  0  0  0  0  0  0  0  0  0  0  0
    5.1478   -3.8971    0.0000 C   0  0  0  0  0  0  0  0  0  0  0  0
    6.6478   -3.8971    0.0000 C   0  0  0  0  0  0  0  0  0  0  0  0
    4.3978   -2.5981    0.0000 C   0  0  0  0  0  0  0  0  0  0  0  0
    5.1478   -1.2990    0.0000 C   0  0  0  0  0  0  0  0  0  0  0  0
    6.6478   -1.2990    0.0000 C   0  0  0  0  0  0  0  0  0  0  0  0
    4.3978    0.0000    0.0000 C   0  0  0  0  0  0  0  0  0  0  0  0
    2.8978    0.0000    0.0000 C   0  0  0  0  0  0  0  0  0  0  0  0
    2.5095   -1.4489    0.0000 C   0  0  0  0  0  0  0  0  0  0  0  0
    1.4489   -2.5095    0.0000 C   0  0  0  0  0  0  0  0  0  0  0  0
   -0.0000   -2.8978    0.0000 C   0  0  0  0  0  0  0  0  0  0  0  0
   -1.4489   -2.5095    0.0000 C   0  0  0  0  0  0  0  0  0  0  0  0
   -2.5095   -1.4489    0.0000 C   0  0  0  0  0  0  0  0  0  0  0  0
   -2.8978    0.0000    0.0000 C   0  0  0  0  0  0  0  0  0  0  0  0
   -2.5095    1.4489    0.0000 C   0  0  0  0  0  0  0  0  0  0  0  0
   -1.4489    2.5095    0.0000 C   0  0  0  0  0  0  0  0  0  0  0  0
    0.0000    2.8978    0.0000 C   0  0  0  0  0  0  0  0  0  0  0  0
    1.4489    2.5095    0.0000 C   0  0  0  0  0  0  0  0  0  0  0  0
    2.5095    1.4489    0.0000 C   0  0  0  0  0  0  0  0  0  0  0  0
  1  2  1  0
  2  3  1  0
  2  4  1  0
  4  5  1  0
  5  6  1  0
  5  7  1  0
  7  8  1  0
  8  9  2  0
  9 10  1  0
 10 11  2  0
 11 12  1  0
 12 13  2  0
 13 14  1  0
 14 15  2  0
 15 16  1  0
 16 17  2  0
 17 18  1  0
 18 19  2  0
 19  8  1  0
M  END
>  <Title>  (194) 
idAAHLgen7

$$$$

     RDKit          2D

 11 11  0  0  0  0  0  0  0  0999 V2000
    4.2098   -1.2990    0.0000 C   0  0  0  0  0  0  0  0  0  0  0  0
    3.4598   -0.0000    0.0000 O   0  0  0  0  0  0  0  0  0  0  0  0
    1.9598    0.0000    0.0000 C   0  0  0  0  0  0  0  0  0  0  0  0
    1.3858   -1.3858    0.0000 C   0  0  0  0  0  0  0  0  0  0  0  0
   -0.0000   -1.9598    0.0000 C   0  0  0  0  0  0  0  0  0  0  0  0
   -1.3858   -1.3858    0.0000 C   0  0  0  0  0  0  0  0  0  0  0  0
   -1.9598    0.0000    0.0000 C   0  0  0  0  0  0  0  0  0  0  0  0
   -1.3858    1.3858    0.0000 C   0  0  0  0  0  0  0  0  0  0  0  0
   -2.4465    2.4465    0.0000 O   0  0  0  0  0  0  0  0  0  0  0  0
    0.0000    1.9598    0.0000 C   0  0  0  0  0  0  0  0  0  0  0  0
    1.3858    1.3858    0.0000 C   0  0  0  0  0  0  0  0  0  0  0  0
  1  2  1  0
  2  3  1  0
  3  4  2  0
  4  5  1  0
  5  6  2  0
  6  7  1  0
  7  8  2  0
  8  9  1  0
  8 10  1  0
 10 11  1  0
 11  3  1  0
M  END
>  <Title>  (195) 
idAAHMgen7

$$$$

     RDKit          2D

 60 69  0  0  0  0  0  0  0  0999 V2000
  -10.1624    4.2767    0.0000 C   0  0  0  0  0  0  0  0  0  0  0  0
   -8.9488    3.3950    0.0000 C   0  0  0  0  0  0  0  0  0  0  0  0
   -9.1056    1.9033    0.0000 C   0  0  0  0  0  0  0  0  0  0  0  0
   -7.8921    1.0216    0.0000 C   0  0  0  0  0  0  0  0  0  0  0  0
   -6.5218    1.6317    0.0000 C   0  0  0  0  0  0  0  0  0  0  0  0
   -5.3083    0.7500    0.0000 C   0  0  0  0  0  0  0  0  0  0  0  0
   -5.3083   -0.7500    0.0000 N   0  0  0  0  0  0  0  0  0  0  0  0
   -3.8817   -1.2135    0.0000 N   0  0  0  0  0  0  0  0  0  0  0  0
   -3.0000    0.0000    0.0000 N   0  0  0  0  0  0  0  0  0  0  0  0
   -3.8817    1.2135    0.0000 N   0  0  0  0  0  0  0  0  0  0  0  0
   -3.4182    2.6401    0.0000 C   0  0  0  0  0  0  0  0  0  0  0  0
   -2.0816    3.3211    0.0000 C   0  0  0  0  0  0  0  0  0  0  0  0
   -0.6551    2.8576    0.0000 C   0  0  0  0  0  0  0  0  0  0  0  0
   -0.3432    1.3903    0.0000 C   0  0  0  0  0  0  0  0  0  0  0  0
    1.0834    0.9268    0.0000 C   0  0  0  0  0  0  0  0  0  0  0  0
    2.1981    1.9305    0.0000 C   0  0  0  0  0  0  0  0  0  0  0  0
    1.8862    3.3977    0.0000 C   0  0  0  0  0  0  0  0  0  0  0  0
    0.4597    3.8613    0.0000 C   0  0  0  0  0  0  0  0  0  0  0  0
   -2.7626    4.6576    0.0000 C   0  0  0  0  0  0  0  0  0  0  0  0
   -4.0991    3.9766    0.0000 C   0  0  0  0  0  0  0  0  0  0  0  0
   -5.5257    4.4401    0.0000 C   0  0  0  0  0  0  0  0  0  0  0  0
   -6.7392    3.5585    0.0000 N   0  0  0  0  0  0  0  0  0  0  0  0
   -7.9528    4.4401    0.0000 N   0  0  0  0  0  0  0  0  0  0  0  0
   -7.4892    5.8667    0.0000 N   0  0  0  0  0  0  0  0  0  0  0  0
   -5.9892    5.8667    0.0000 N   0  0  0  0  0  0  0  0  0  0  0  0
   -5.1076    7.0803    0.0000 C   0  0  0  0  0  0  0  0  0  0  0  0
   -3.6158    6.9235    0.0000 C   0  0  0  0  0  0  0  0  0  0  0  0
   -2.7341    8.1370    0.0000 C   0  0  0  0  0  0  0  0  0  0  0  0
   -3.3442    9.5073    0.0000 C   0  0  0  0  0  0  0  0  0  0  0  0
   -2.4625   10.7208    0.0000 C   0  0  0  0  0  0  0  0  0  0  0  0
   -0.9708   10.5640    0.0000 C   0  0  0  0  0  0  0  0  0  0  0  0
   -0.0891   11.7776    0.0000 C   0  0  0  0  0  0  0  0  0  0  0  0
   -0.6992   13.1479    0.0000 C   0  0  0  0  0  0  0  0  0  0  0  0
    0.1825   14.3614    0.0000 C   0  0  0  0  0  0  0  0  0  0  0  0
    1.6743   14.2046    0.0000 C   0  0  0  0  0  0  0  0  0  0  0  0
    2.5560   15.4181    0.0000 C   0  0  0  0  0  0  0  0  0  0  0  0
    1.9459   16.7885    0.0000 C   0  0  0  0  0  0  0  0  0  0  0  0
    0.4541   16.9453    0.0000 C   0  0  0  0  0  0  0  0  0  0  0  0
   -0.4276   15.7317    0.0000 C   0  0  0  0  0  0  0  0  0  0  0  0
   -2.1910   13.3047    0.0000 C   0  0  0  0  0  0  0  0  0  0  0  0
   -3.0726   12.0912    0.0000 C   0  0  0  0  0  0  0  0  0  0  0  0
   -4.8360    9.6641    0.0000 C   0  0  0  0  0  0  0  0  0  0  0  0
   -5.7177    8.4506    0.0000 C   0  0  0  0  0  0  0  0  0  0  0  0
   -7.2095    8.6074    0.0000 C   0  0  0  0  0  0  0  0  0  0  0  0
   -7.8196    9.9777    0.0000 C   0  0  0  0  0  0  0  0  0  0  0  0
   -9.3113   10.1345    0.0000 C   0  0  0  0  0  0  0  0  0  0  0  0
  -10.1930    8.9210    0.0000 C   0  0  0  0  0  0  0  0  0  0  0  0
  -11.6848    9.0777    0.0000 N   0  0  0  0  0  0  0  0  0  0  0  0
  -12.2949   10.4481    0.0000 C   0  0  0  0  0  0  0  0  0  0  0  0
  -11.4132   11.6616    0.0000 O   0  0  0  0  0  0  0  0  0  0  0  0
  -13.7867   10.6049    0.0000 C   0  0  0  0  0  0  0  0  0  0  0  0
  -14.3968   11.9752    0.0000 C   0  0  0  0  0  0  0  0  0  0  0  0
  -15.8886   12.1320    0.0000 C   0  0  0  0  0  0  0  0  0  0  0  0
  -16.7703   10.9184    0.0000 C   0  0  0  0  0  0  0  0  0  0  0  0
  -16.1602    9.5481    0.0000 C   0  0  0  0  0  0  0  0  0  0  0  0
  -14.6684    9.3913    0.0000 C   0  0  0  0  0  0  0  0  0  0  0  0
   -9.5829    7.5506    0.0000 C   0  0  0  0  0  0  0  0  0  0  0  0
   -8.0911    7.3938    0.0000 C   0  0  0  0  0  0  0  0  0  0  0  0
   -6.3650    3.1235    0.0000 C   0  0  0  0  0  0  0  0  0  0  0  0
   -7.5785    4.0051    0.0000 C   0  0  0  0  0  0  0  0  0  0  0  0
  1  2  1  0
  2  3  2  0
  3  4  1  0
  4  5  2  0
  5  6  1  0
  6  7  2  0
  7  8  1  0
  8  9  2  0
  9 10  1  0
 10 11  1  0
 11 12  2  0
 12 13  1  0
 13 14  2  0
 14 15  1  0
 15 16  2  0
 16 17  1  0
 17 18  2  0
 12 19  1  0
 19 20  2  0
 20 21  1  0
 21 22  2  0
 22 23  1  0
 23 24  2  0
 24 25  1  0
 25 26  1  0
 26 27  2  0
 27 28  1  0
 28 29  2  0
 29 30  1  0
 30 31  2  0
 31 32  1  0
 32 33  2  0
 33 34  1  0
 34 35  2  0
 35 36  1  0
 36 37  2  0
 37 38  1  0
 38 39  2  0
 33 40  1  0
 40 41  2  0
 29 42  1  0
 42 43  2  0
 43 44  1  0
 44 45  2  0
 45 46  1  0
 46 47  2  0
 47 48  1  0
 48 49  1  0
 49 50  2  0
 49 51  1  0
 51 52  2  0
 52 53  1  0
 53 54  2  0
 54 55  1  0
 55 56  2  0
 47 57  1  0
 57 58  2  0
  5 59  1  0
 59 60  2  0
 60  2  1  0
 10  6  1  0
 20 11  1  0
 25 21  1  0
 43 26  1  0
 58 44  1  0
 18 13  1  0
 41 30  1  0
 56 51  1  0
 39 34  1  0
M  END
>  <Title>  (196) 
idAAHNgen7

$$$$

     RDKit          2D

 12 12  0  0  0  0  0  0  0  0999 V2000
    4.6771   -1.2990    0.0000 C   0  0  0  0  0  0  0  0  0  0  0  0
    3.9271    0.0000    0.0000 O   0  0  0  0  0  0  0  0  0  0  0  0
    2.4271    0.0000    0.0000 C   0  0  0  0  0  0  0  0  0  0  0  0
    1.9635   -1.4266    0.0000 C   0  0  0  0  0  0  0  0  0  0  0  0
    0.7500   -2.3083    0.0000 C   0  0  0  0  0  0  0  0  0  0  0  0
   -0.7500   -2.3083    0.0000 C   0  0  0  0  0  0  0  0  0  0  0  0
   -1.9635   -1.4266    0.0000 C   0  0  0  0  0  0  0  0  0  0  0  0
   -2.4271    0.0000    0.0000 C   0  0  0  0  0  0  0  0  0  0  0  0
   -1.9635    1.4266    0.0000 C   0  0  0  0  0  0  0  0  0  0  0  0
   -0.7500    2.3083    0.0000 C   0  0  0  0  0  0  0  0  0  0  0  0
    0.7500    2.3083    0.0000 C   0  0  0  0  0  0  0  0  0  0  0  0
    1.9635    1.4266    0.0000 C   0  0  0  0  0  0  0  0  0  0  0  0
  1  2  1  0
  2  3  1  0
  3  4  1  0
  4  5  1  0
  5  6  1  0
  6  7  1  0
  7  8  1  0
  8  9  1  0
  9 10  1  0
 10 11  1  0
 11 12  1  0
 12  3  1  0
M  END
>  <Title>  (197) 
idAAHOgen7

$$$$

     RDKit          2D

 32 36  0  0  0  0  0  0  0  0999 V2000
    3.0000    0.0000    0.0000 C   0  0  0  0  0  0  0  0  0  0  0  0
    1.5000    0.0000    0.0000 C   0  0  0  0  0  0  0  0  0  0  0  0
    0.7500   -1.2990    0.0000 C   0  0  0  0  0  0  0  0  0  0  0  0
   -0.7500   -1.2990    0.0000 C   0  0  0  0  0  0  0  0  0  0  0  0
   -1.5000    0.0000    0.0000 C   0  0  0  0  0  0  0  0  0  0  0  0
   -3.0000    0.0000    0.0000 C   0  0  0  0  0  0  0  0  0  0  0  0
   -3.8817   -1.2135    0.0000 N   0  0  0  0  0  0  0  0  0  0  0  0
   -5.3083   -0.7500    0.0000 N   0  0  0  0  0  0  0  0  0  0  0  0
   -5.3083    0.7500    0.0000 N   0  0  0  0  0  0  0  0  0  0  0  0
   -3.8817    1.2135    0.0000 N   0  0  0  0  0  0  0  0  0  0  0  0
   -3.4182    2.6401    0.0000 C   0  0  0  0  0  0  0  0  0  0  0  0
   -1.9509    2.9520    0.0000 C   0  0  0  0  0  0  0  0  0  0  0  0
   -1.4874    4.3786    0.0000 C   0  0  0  0  0  0  0  0  0  0  0  0
   -2.4911    5.4933    0.0000 C   0  0  0  0  0  0  0  0  0  0  0  0
   -2.0276    6.9199    0.0000 C   0  0  0  0  0  0  0  0  0  0  0  0
   -3.0313    8.0346    0.0000 O   0  0  0  0  0  0  0  0  0  0  0  0
   -0.5604    7.2317    0.0000 N   0  0  0  0  0  0  0  0  0  0  0  0
   -0.0968    8.6583    0.0000 C   0  0  0  0  0  0  0  0  0  0  0  0
   -0.9785    9.8718    0.0000 N   0  0  0  0  0  0  0  0  0  0  0  0
   -0.0968   11.0854    0.0000 N   0  0  0  0  0  0  0  0  0  0  0  0
    1.3298   10.6218    0.0000 N   0  0  0  0  0  0  0  0  0  0  0  0
    1.3298    9.1218    0.0000 N   0  0  0  0  0  0  0  0  0  0  0  0
    2.5433    8.2402    0.0000 C   0  0  0  0  0  0  0  0  0  0  0  0
    2.3865    6.7484    0.0000 C   0  0  0  0  0  0  0  0  0  0  0  0
    3.6000    5.8667    0.0000 C   0  0  0  0  0  0  0  0  0  0  0  0
    4.9703    6.4768    0.0000 C   0  0  0  0  0  0  0  0  0  0  0  0
    5.1271    7.9686    0.0000 C   0  0  0  0  0  0  0  0  0  0  0  0
    3.9136    8.8503    0.0000 C   0  0  0  0  0  0  0  0  0  0  0  0
   -3.9583    5.1814    0.0000 C   0  0  0  0  0  0  0  0  0  0  0  0
   -4.4218    3.7548    0.0000 C   0  0  0  0  0  0  0  0  0  0  0  0
   -0.7500    1.2990    0.0000 N   0  0  0  0  0  0  0  0  0  0  0  0
    0.7500    1.2990    0.0000 N   0  0  0  0  0  0  0  0  0  0  0  0
  1  2  1  0
  2  3  2  0
  3  4  1  0
  4  5  2  0
  5  6  1  0
  6  7  2  0
  7  8  1  0
  8  9  2  0
  9 10  1  0
 10 11  1  0
 11 12  2  0
 12 13  1  0
 13 14  2  0
 14 15  1  0
 15 16  2  0
 15 17  1  0
 17 18  1  0
 18 19  2  0
 19 20  1  0
 20 21  2  0
 21 22  1  0
 22 23  1  0
 23 24  2  0
 24 25  1  0
 25 26  2  0
 26 27  1  0
 27 28  2  0
 14 29  1  0
 29 30  2  0
  5 31  1  0
 31 32  2  0
 32  2  1  0
 10  6  1  0
 30 11  1  0
 22 18  1  0
 28 23  1  0
M  END
>  <Title>  (198) 
idAAHPgen7

$$$$

     RDKit          2D

 27 29  0  0  0  0  0  0  0  0999 V2000
    3.7500   -1.2990    0.0000 C   0  0  0  0  0  0  0  0  0  0  0  0
    3.0000    0.0000    0.0000 O   0  0  0  0  0  0  0  0  0  0  0  0
    1.5000    0.0000    0.0000 C   0  0  0  0  0  0  0  0  0  0  0  0
    0.7500   -1.2990    0.0000 C   0  0  0  0  0  0  0  0  0  0  0  0
   -0.7500   -1.2990    0.0000 C   0  0  0  0  0  0  0  0  0  0  0  0
   -1.5000    0.0000    0.0000 C   0  0  0  0  0  0  0  0  0  0  0  0
   -3.0000    0.0000    0.0000 N   0  0  0  0  0  0  0  0  0  0  0  0
   -3.8817   -1.2135    0.0000 N   0  0  0  0  0  0  0  0  0  0  0  0
   -5.3083   -0.7500    0.0000 N   0  0  0  0  0  0  0  0  0  0  0  0
   -5.3083    0.7500    0.0000 N   0  0  0  0  0  0  0  0  0  0  0  0
   -3.8817    1.2135    0.0000 C   0  0  0  0  0  0  0  0  0  0  0  0
   -3.4182    2.6401    0.0000 N   0  0  0  0  0  0  0  0  0  0  0  0
   -4.4218    3.7548    0.0000 C   0  0  0  0  0  0  0  0  0  0  0  0
   -5.8891    3.4430    0.0000 O   0  0  0  0  0  0  0  0  0  0  0  0
   -3.9583    5.1814    0.0000 C   0  0  0  0  0  0  0  0  0  0  0  0
   -2.4911    5.4933    0.0000 C   0  0  0  0  0  0  0  0  0  0  0  0
   -2.0276    6.9199    0.0000 C   0  0  0  0  0  0  0  0  0  0  0  0
   -3.0313    8.0346    0.0000 C   0  0  0  0  0  0  0  0  0  0  0  0
   -2.5677    9.4612    0.0000 C   0  0  0  0  0  0  0  0  0  0  0  0
   -3.5714   10.5759    0.0000 O   0  0  0  0  0  0  0  0  0  0  0  0
   -1.1005    9.7730    0.0000 N   0  0  0  0  0  0  0  0  0  0  0  0
   -0.6370   11.1996    0.0000 O   0  0  0  0  0  0  0  0  0  0  0  0
   -4.4985    7.7227    0.0000 C   0  0  0  0  0  0  0  0  0  0  0  0
   -4.9620    6.2961    0.0000 C   0  0  0  0  0  0  0  0  0  0  0  0
   -0.7500    1.2990    0.0000 C   0  0  0  0  0  0  0  0  0  0  0  0
   -1.5000    2.5981    0.0000 O   0  0  0  0  0  0  0  0  0  0  0  0
    0.7500    1.2990    0.0000 N   0  0  0  0  0  0  0  0  0  0  0  0
  1  2  1  0
  2  3  1  0
  3  4  2  0
  4  5  1  0
  5  6  2  0
  6  7  1  0
  7  8  1  0
  8  9  2  0
  9 10  1  0
 10 11  2  0
 11 12  1  0
 12 13  1  0
 13 14  2  0
 13 15  1  0
 15 16  2  0
 16 17  1  0
 17 18  2  0
 18 19  1  0
 19 20  2  0
 19 21  1  0
 21 22  1  0
 18 23  1  0
 23 24  1  0
  6 25  1  0
 25 26  2  0
 25 27  1  0
 27  3  1  0
 11  7  1  0
 24 15  1  0
M  END
>  <Title>  (199) 
idAAHQgen7

$$$$

     RDKit          2D

 49 55  0  0  0  0  0  0  0  0999 V2000
    3.0000    0.0000    0.0000 C   0  0  0  0  0  0  0  0  0  0  0  0
    1.5000    0.0000    0.0000 C   0  0  0  0  0  0  0  0  0  0  0  0
    0.7500   -1.2990    0.0000 C   0  0  0  0  0  0  0  0  0  0  0  0
   -0.7500   -1.2990    0.0000 C   0  0  0  0  0  0  0  0  0  0  0  0
   -1.5000    0.0000    0.0000 C   0  0  0  0  0  0  0  0  0  0  0  0
   -3.0000    0.0000    0.0000 C   0  0  0  0  0  0  0  0  0  0  0  0
   -3.7500   -1.2990    0.0000 O   0  0  0  0  0  0  0  0  0  0  0  0
   -3.7500    1.2990    0.0000 N   0  0  0  0  0  0  0  0  0  0  0  0
   -5.2500    1.2990    0.0000 C   0  0  0  0  0  0  0  0  0  0  0  0
   -6.1317    0.0855    0.0000 N   0  0  0  0  0  0  0  0  0  0  0  0
   -7.5583    0.5490    0.0000 N   0  0  0  0  0  0  0  0  0  0  0  0
   -7.5583    2.0490    0.0000 N   0  0  0  0  0  0  0  0  0  0  0  0
   -6.1317    2.5126    0.0000 N   0  0  0  0  0  0  0  0  0  0  0  0
   -5.6682    3.9391    0.0000 C   0  0  0  0  0  0  0  0  0  0  0  0
   -4.2009    4.2510    0.0000 C   0  0  0  0  0  0  0  0  0  0  0  0
   -3.7374    5.6776    0.0000 C   0  0  0  0  0  0  0  0  0  0  0  0
   -4.7411    6.7923    0.0000 C   0  0  0  0  0  0  0  0  0  0  0  0
   -4.2776    8.2189    0.0000 C   0  0  0  0  0  0  0  0  0  0  0  0
   -5.1593    9.4324    0.0000 N   0  0  0  0  0  0  0  0  0  0  0  0
   -4.2776   10.6460    0.0000 N   0  0  0  0  0  0  0  0  0  0  0  0
   -2.8510   10.1824    0.0000 N   0  0  0  0  0  0  0  0  0  0  0  0
   -2.8510    8.6824    0.0000 N   0  0  0  0  0  0  0  0  0  0  0  0
   -1.6375    7.8008    0.0000 C   0  0  0  0  0  0  0  0  0  0  0  0
   -1.7943    6.3090    0.0000 C   0  0  0  0  0  0  0  0  0  0  0  0
   -0.5807    5.4273    0.0000 C   0  0  0  0  0  0  0  0  0  0  0  0
    0.7896    6.0374    0.0000 C   0  0  0  0  0  0  0  0  0  0  0  0
    2.0031    5.1557    0.0000 C   0  0  0  0  0  0  0  0  0  0  0  0
    1.8463    3.6639    0.0000 C   0  0  0  0  0  0  0  0  0  0  0  0
    3.0598    2.7823    0.0000 N   0  0  0  0  0  0  0  0  0  0  0  0
    4.4302    3.3924    0.0000 N   0  0  0  0  0  0  0  0  0  0  0  0
    4.5870    4.8841    0.0000 C   0  0  0  0  0  0  0  0  0  0  0  0
    3.3734    5.7658    0.0000 N   0  0  0  0  0  0  0  0  0  0  0  0
    0.9464    7.5292    0.0000 C   0  0  0  0  0  0  0  0  0  0  0  0
   -0.2671    8.4109    0.0000 C   0  0  0  0  0  0  0  0  0  0  0  0
   -6.2083    6.4805    0.0000 C   0  0  0  0  0  0  0  0  0  0  0  0
   -6.6718    5.0539    0.0000 C   0  0  0  0  0  0  0  0  0  0  0  0
   -8.1391    4.7420    0.0000 C   0  0  0  0  0  0  0  0  0  0  0  0
   -9.1428    5.8567    0.0000 C   0  0  0  0  0  0  0  0  0  0  0  0
  -10.6100    5.5448    0.0000 C   0  0  0  0  0  0  0  0  0  0  0  0
  -11.0735    4.1183    0.0000 C   0  0  0  0  0  0  0  0  0  0  0  0
  -12.5407    3.8064    0.0000 C   0  0  0  0  0  0  0  0  0  0  0  0
  -13.0043    2.3798    0.0000 O   0  0  0  0  0  0  0  0  0  0  0  0
  -13.5444    4.9211    0.0000 N   0  0  0  0  0  0  0  0  0  0  0  0
  -15.0117    4.6092    0.0000 O   0  0  0  0  0  0  0  0  0  0  0  0
  -10.0698    3.0035    0.0000 C   0  0  0  0  0  0  0  0  0  0  0  0
   -8.6026    3.3154    0.0000 C   0  0  0  0  0  0  0  0  0  0  0  0
   -0.7500    1.2990    0.0000 C   0  0  0  0  0  0  0  0  0  0  0  0
   -1.5000    2.5981    0.0000 O   0  0  0  0  0  0  0  0  0  0  0  0
    0.7500    1.2990    0.0000 N   0  0  0  0  0  0  0  0  0  0  0  0
  1  2  1  0
  2  3  2  0
  3  4  1  0
  4  5  2  0
  5  6  1  0
  6  7  2  0
  6  8  1  0
  8  9  1  0
  9 10  2  0
 10 11  1  0
 11 12  2  0
 12 13  1  0
 13 14  1  0
 14 15  2  0
 15 16  1  0
 16 17  2  0
 17 18  1  0
 18 19  2  0
 19 20  1  0
 20 21  2  0
 21 22  1  0
 22 23  1  0
 23 24  2  0
 24 25  1  0
 25 26  2  0
 26 27  1  0
 27 28  2  0
 28 29  1  0
 29 30  2  0
 30 31  1  0
 31 32  2  0
 26 33  1  0
 33 34  2  0
 17 35  1  0
 35 36  2  0
 36 37  1  0
 37 38  2  0
 38 39  1  0
 39 40  2  0
 40 41  1  0
 41 42  2  0
 41 43  1  0
 43 44  1  0
 40 45  1  0
 45 46  1  0
  5 47  1  0
 47 48  2  0
 47 49  1  0
 49  2  1  0
 13  9  1  0
 36 14  1  0
 46 37  1  0
 22 18  1  0
 34 23  1  0
 32 27  1  0
M  END
>  <Title>  (200) 
idAAHRgen7

$$$$

     RDKit          2D

 37 40  0  0  0  0  0  0  0  0999 V2000
    3.9786   -1.2990    0.0000 C   0  0  0  0  0  0  0  0  0  0  0  0
    3.2286   -0.0000    0.0000 O   0  0  0  0  0  0  0  0  0  0  0  0
    1.7286    0.0000    0.0000 C   0  0  0  0  0  0  0  0  0  0  0  0
    1.0777    1.3515    0.0000 C   0  0  0  0  0  0  0  0  0  0  0  0
   -0.3846    1.6852    0.0000 C   0  0  0  0  0  0  0  0  0  0  0  0
   -1.5574    0.7500    0.0000 C   0  0  0  0  0  0  0  0  0  0  0  0
   -2.9088    1.4008    0.0000 C   0  0  0  0  0  0  0  0  0  0  0  0
   -1.5574   -0.7500    0.0000 N   0  0  0  0  0  0  0  0  0  0  0  0
   -2.9088   -1.4008    0.0000 C   0  0  0  0  0  0  0  0  0  0  0  0
   -3.0209   -2.8966    0.0000 C   0  0  0  0  0  0  0  0  0  0  0  0
   -1.7816   -3.7416    0.0000 O   0  0  0  0  0  0  0  0  0  0  0  0
   -4.3724   -3.5475    0.0000 N   0  0  0  0  0  0  0  0  0  0  0  0
   -4.4845   -5.0433    0.0000 C   0  0  0  0  0  0  0  0  0  0  0  0
   -5.8359   -5.6941    0.0000 N   0  0  0  0  0  0  0  0  0  0  0  0
   -5.9480   -7.1899    0.0000 C   0  0  0  0  0  0  0  0  0  0  0  0
   -7.2995   -7.8407    0.0000 N   0  0  0  0  0  0  0  0  0  0  0  0
   -8.5388   -6.9957    0.0000 C   0  0  0  0  0  0  0  0  0  0  0  0
   -8.4268   -5.4999    0.0000 C   0  0  0  0  0  0  0  0  0  0  0  0
   -9.6661   -4.6550    0.0000 C   0  0  0  0  0  0  0  0  0  0  0  0
  -11.0176   -5.3058    0.0000 C   0  0  0  0  0  0  0  0  0  0  0  0
  -11.1297   -6.8016    0.0000 C   0  0  0  0  0  0  0  0  0  0  0  0
   -9.8903   -7.6466    0.0000 C   0  0  0  0  0  0  0  0  0  0  0  0
   -4.7087   -8.0349    0.0000 N   0  0  0  0  0  0  0  0  0  0  0  0
   -4.8208   -9.5307    0.0000 C   0  0  0  0  0  0  0  0  0  0  0  0
   -3.5814  -10.3757    0.0000 C   0  0  0  0  0  0  0  0  0  0  0  0
   -2.2300   -9.7248    0.0000 O   0  0  0  0  0  0  0  0  0  0  0  0
   -3.6935  -11.8715    0.0000 N   0  0  0  0  0  0  0  0  0  0  0  0
   -2.4542  -12.7164    0.0000 C   0  0  0  0  0  0  0  0  0  0  0  0
   -2.5662  -14.2123    0.0000 C   0  0  0  0  0  0  0  0  0  0  0  0
   -1.3269  -15.0572    0.0000 C   0  0  0  0  0  0  0  0  0  0  0  0
    0.0246  -14.4064    0.0000 C   0  0  0  0  0  0  0  0  0  0  0  0
    0.1367  -12.9106    0.0000 C   0  0  0  0  0  0  0  0  0  0  0  0
   -1.1027  -12.0656    0.0000 C   0  0  0  0  0  0  0  0  0  0  0  0
   -3.3572   -7.3840    0.0000 C   0  0  0  0  0  0  0  0  0  0  0  0
   -3.2451   -5.8882    0.0000 C   0  0  0  0  0  0  0  0  0  0  0  0
   -0.3846   -1.6852    0.0000 C   0  0  0  0  0  0  0  0  0  0  0  0
    1.0777   -1.3515    0.0000 C   0  0  0  0  0  0  0  0  0  0  0  0
  1  2  1  0
  2  3  1  0
  3  4  2  0
  4  5  1  0
  5  6  2  0
  6  7  1  0
  6  8  1  0
  8  9  1  0
  9 10  1  0
 10 11  2  0
 10 12  1  0
 12 13  1  0
 13 14  2  0
 14 15  1  0
 15 16  1  0
 16 17  1  0
 17 18  2  0
 18 19  1  0
 19 20  2  0
 20 21  1  0
 21 22  2  0
 15 23  1  0
 23 24  1  0
 24 25  1  0
 25 26  2  0
 25 27  1  0
 27 28  1  0
 28 29  2  0
 29 30  1  0
 30 31  2  0
 31 32  1  0
 32 33  2  0
 23 34  1  0
 34 35  2  0
  8 36  1  0
 36 37  2  0
 37  3  1  0
 35 13  1  0
 22 17  1  0
 33 28  1  0
M  END
>  <Title>  (201) 
idAAHSgen7

$$$$

     RDKit          2D

 50 57  0  0  0  0  0  0  0  0999 V2000
   10.0355    0.6881    0.0000 C   0  0  0  0  0  0  0  0  0  0  0  0
    8.5683    0.3762    0.0000 C   0  0  0  0  0  0  0  0  0  0  0  0
    7.4536    1.3799    0.0000 C   0  0  0  0  0  0  0  0  0  0  0  0
    6.1545    0.6299    0.0000 C   0  0  0  0  0  0  0  0  0  0  0  0
    6.4664   -0.8373    0.0000 C   0  0  0  0  0  0  0  0  0  0  0  0
    5.4627   -1.9520    0.0000 C   0  0  0  0  0  0  0  0  0  0  0  0
    5.9262   -3.3786    0.0000 O   0  0  0  0  0  0  0  0  0  0  0  0
    3.9955   -1.6402    0.0000 N   0  0  0  0  0  0  0  0  0  0  0  0
    2.9918   -2.7549    0.0000 C   0  0  0  0  0  0  0  0  0  0  0  0
    3.3037   -4.2221    0.0000 N   0  0  0  0  0  0  0  0  0  0  0  0
    2.0046   -4.9721    0.0000 N   0  0  0  0  0  0  0  0  0  0  0  0
    0.8899   -3.9684    0.0000 N   0  0  0  0  0  0  0  0  0  0  0  0
    1.5000   -2.5981    0.0000 N   0  0  0  0  0  0  0  0  0  0  0  0
    0.7500   -1.2990    0.0000 C   0  0  0  0  0  0  0  0  0  0  0  0
    1.5000    0.0000    0.0000 C   0  0  0  0  0  0  0  0  0  0  0  0
    0.7500    1.2990    0.0000 C   0  0  0  0  0  0  0  0  0  0  0  0
   -0.7500    1.2990    0.0000 C   0  0  0  0  0  0  0  0  0  0  0  0
   -1.5000    2.5981    0.0000 C   0  0  0  0  0  0  0  0  0  0  0  0
   -0.7500    3.8971    0.0000 C   0  0  0  0  0  0  0  0  0  0  0  0
    0.7500    3.8971    0.0000 C   0  0  0  0  0  0  0  0  0  0  0  0
    1.5000    5.1962    0.0000 C   0  0  0  0  0  0  0  0  0  0  0  0
    0.7500    6.4952    0.0000 C   0  0  0  0  0  0  0  0  0  0  0  0
   -0.7500    6.4952    0.0000 C   0  0  0  0  0  0  0  0  0  0  0  0
   -1.5000    5.1962    0.0000 C   0  0  0  0  0  0  0  0  0  0  0  0
   -1.5000    0.0000    0.0000 C   0  0  0  0  0  0  0  0  0  0  0  0
   -0.7500   -1.2990    0.0000 C   0  0  0  0  0  0  0  0  0  0  0  0
   -1.5000   -2.5981    0.0000 C   0  0  0  0  0  0  0  0  0  0  0  0
   -0.7500   -3.8971    0.0000 C   0  0  0  0  0  0  0  0  0  0  0  0
   -1.5000   -5.1962    0.0000 C   0  0  0  0  0  0  0  0  0  0  0  0
   -3.0000   -5.1962    0.0000 C   0  0  0  0  0  0  0  0  0  0  0  0
   -3.7500   -3.8971    0.0000 C   0  0  0  0  0  0  0  0  0  0  0  0
   -3.0000   -2.5981    0.0000 C   0  0  0  0  0  0  0  0  0  0  0  0
   -3.7500   -1.2990    0.0000 C   0  0  0  0  0  0  0  0  0  0  0  0
   -3.1399    0.0713    0.0000 C   0  0  0  0  0  0  0  0  0  0  0  0
   -4.2546    1.0750    0.0000 C   0  0  0  0  0  0  0  0  0  0  0  0
   -5.5537    0.3250    0.0000 C   0  0  0  0  0  0  0  0  0  0  0  0
   -6.9240    0.9351    0.0000 C   0  0  0  0  0  0  0  0  0  0  0  0
   -7.2358    2.4023    0.0000 N   0  0  0  0  0  0  0  0  0  0  0  0
   -8.7276    2.5591    0.0000 N   0  0  0  0  0  0  0  0  0  0  0  0
   -9.3377    1.1888    0.0000 N   0  0  0  0  0  0  0  0  0  0  0  0
   -8.2230    0.1851    0.0000 N   0  0  0  0  0  0  0  0  0  0  0  0
   -8.3798   -1.3067    0.0000 C   0  0  0  0  0  0  0  0  0  0  0  0
   -7.1663   -2.1884    0.0000 C   0  0  0  0  0  0  0  0  0  0  0  0
   -7.3231   -3.6802    0.0000 C   0  0  0  0  0  0  0  0  0  0  0  0
   -8.6934   -4.2903    0.0000 C   0  0  0  0  0  0  0  0  0  0  0  0
   -9.9069   -3.4086    0.0000 C   0  0  0  0  0  0  0  0  0  0  0  0
   -9.7501   -1.9168    0.0000 C   0  0  0  0  0  0  0  0  0  0  0  0
   -5.2418   -1.1422    0.0000 C   0  0  0  0  0  0  0  0  0  0  0  0
   -6.2455   -2.2570    0.0000 O   0  0  0  0  0  0  0  0  0  0  0  0
    7.9582   -0.9941    0.0000 N   0  0  0  0  0  0  0  0  0  0  0  0
  1  2  1  0
  2  3  2  0
  3  4  1  0
  4  5  2  0
  5  6  1  0
  6  7  2  0
  6  8  1  0
  8  9  1  0
  9 10  2  0
 10 11  1  0
 11 12  2  0
 12 13  1  0
 13 14  1  0
 14 15  2  0
 15 16  1  0
 16 17  2  0
 17 18  1  0
 18 19  1  0
 19 20  2  0
 20 21  1  0
 21 22  2  0
 22 23  1  0
 23 24  2  0
 17 25  1  0
 25 26  2  0
 26 27  1  0
 27 28  2  0
 28 29  1  0
 29 30  2  0
 30 31  1  0
 31 32  2  0
 32 33  1  0
 33 34  2  0
 34 35  1  0
 35 36  2  0
 36 37  1  0
 37 38  2  0
 38 39  1  0
 39 40  2  0
 40 41  1  0
 41 42  1  0
 42 43  2  0
 43 44  1  0
 44 45  2  0
 45 46  1  0
 46 47  2  0
 36 48  1  0
 48 49  2  0
  5 50  1  0
 50  2  1  0
 13  9  1  0
 26 14  1  0
 32 27  1  0
 48 33  1  0
 24 19  1  0
 41 37  1  0
 47 42  1  0
M  END
>  <Title>  (202) 
idAAHTgen7

$$$$

     RDKit          2D

 29 32  0  0  0  0  0  0  0  0999 V2000
    3.0000    0.0000    0.0000 C   0  0  0  0  0  0  0  0  0  0  0  0
    1.5000    0.0000    0.0000 C   0  0  0  0  0  0  0  0  0  0  0  0
    0.7500   -1.2990    0.0000 C   0  0  0  0  0  0  0  0  0  0  0  0
   -0.7500   -1.2990    0.0000 C   0  0  0  0  0  0  0  0  0  0  0  0
   -1.5000    0.0000    0.0000 C   0  0  0  0  0  0  0  0  0  0  0  0
   -3.0000    0.0000    0.0000 C   0  0  0  0  0  0  0  0  0  0  0  0
   -3.7500   -1.2990    0.0000 O   0  0  0  0  0  0  0  0  0  0  0  0
   -3.7500    1.2990    0.0000 N   0  0  0  0  0  0  0  0  0  0  0  0
   -5.2500    1.2990    0.0000 C   0  0  0  0  0  0  0  0  0  0  0  0
   -6.1317    0.0855    0.0000 N   0  0  0  0  0  0  0  0  0  0  0  0
   -7.5583    0.5490    0.0000 N   0  0  0  0  0  0  0  0  0  0  0  0
   -7.5583    2.0490    0.0000 N   0  0  0  0  0  0  0  0  0  0  0  0
   -6.1317    2.5126    0.0000 N   0  0  0  0  0  0  0  0  0  0  0  0
   -5.6682    3.9391    0.0000 C   0  0  0  0  0  0  0  0  0  0  0  0
   -4.2009    4.2510    0.0000 C   0  0  0  0  0  0  0  0  0  0  0  0
   -3.7374    5.6776    0.0000 C   0  0  0  0  0  0  0  0  0  0  0  0
   -4.7411    6.7923    0.0000 C   0  0  0  0  0  0  0  0  0  0  0  0
   -4.2776    8.2189    0.0000 C   0  0  0  0  0  0  0  0  0  0  0  0
   -2.8104    8.5308    0.0000 C   0  0  0  0  0  0  0  0  0  0  0  0
   -2.3468    9.9574    0.0000 C   0  0  0  0  0  0  0  0  0  0  0  0
   -3.3505   11.0721    0.0000 C   0  0  0  0  0  0  0  0  0  0  0  0
   -4.8177   10.7602    0.0000 C   0  0  0  0  0  0  0  0  0  0  0  0
   -5.2813    9.3336    0.0000 C   0  0  0  0  0  0  0  0  0  0  0  0
   -6.2083    6.4805    0.0000 C   0  0  0  0  0  0  0  0  0  0  0  0
   -7.2120    7.5952    0.0000 O   0  0  0  0  0  0  0  0  0  0  0  0
   -6.6718    5.0539    0.0000 N   0  0  0  0  0  0  0  0  0  0  0  0
   -0.7500    1.2990    0.0000 C   0  0  0  0  0  0  0  0  0  0  0  0
   -1.5000    2.5981    0.0000 O   0  0  0  0  0  0  0  0  0  0  0  0
    0.7500    1.2990    0.0000 N   0  0  0  0  0  0  0  0  0  0  0  0
  1  2  1  0
  2  3  2  0
  3  4  1  0
  4  5  2  0
  5  6  1  0
  6  7  2  0
  6  8  1  0
  8  9  1  0
  9 10  2  0
 10 11  1  0
 11 12  2  0
 12 13  1  0
 13 14  1  0
 14 15  2  0
 15 16  1  0
 16 17  2  0
 17 18  1  0
 18 19  2  0
 19 20  1  0
 20 21  2  0
 21 22  1  0
 22 23  2  0
 17 24  1  0
 24 25  2  0
 24 26  1  0
  5 27  1  0
 27 28  2  0
 27 29  1  0
 29  2  1  0
 13  9  1  0
 26 14  1  0
 23 18  1  0
M  END
>  <Title>  (203) 
idAAHUgen7

$$$$

     RDKit          2D

  7  7  0  0  0  0  0  0  0  0999 V2000
    3.0000    0.0000    0.0000 C   0  0  0  0  0  0  0  0  0  0  0  0
    1.5000    0.0000    0.0000 C   0  0  0  0  0  0  0  0  0  0  0  0
    0.7500   -1.2990    0.0000 C   0  0  0  0  0  0  0  0  0  0  0  0
   -0.7500   -1.2990    0.0000 C   0  0  0  0  0  0  0  0  0  0  0  0
   -1.5000    0.0000    0.0000 C   0  0  0  0  0  0  0  0  0  0  0  0
   -0.7500    1.2990    0.0000 C   0  0  0  0  0  0  0  0  0  0  0  0
    0.7500    1.2990    0.0000 N   0  0  0  0  0  0  0  0  0  0  0  0
  1  2  1  0
  2  3  2  0
  3  4  1  0
  4  5  2  0
  5  6  1  0
  6  7  2  0
  7  2  1  0
M  END
>  <Title>  (204) 
idAAHVgen7

$$$$

     RDKit          2D

 38 43  0  0  0  0  0  0  0  0999 V2000
    3.7500    1.2990    0.0000 C   0  0  0  0  0  0  0  0  0  0  0  0
    3.0000    0.0000    0.0000 O   0  0  0  0  0  0  0  0  0  0  0  0
    1.5000    0.0000    0.0000 C   0  0  0  0  0  0  0  0  0  0  0  0
    0.7500    1.2990    0.0000 C   0  0  0  0  0  0  0  0  0  0  0  0
   -0.7500    1.2990    0.0000 C   0  0  0  0  0  0  0  0  0  0  0  0
   -1.5000    0.0000    0.0000 C   0  0  0  0  0  0  0  0  0  0  0  0
   -3.0000    0.0000    0.0000 C   0  0  0  0  0  0  0  0  0  0  0  0
   -3.8817   -1.2135    0.0000 N   0  0  0  0  0  0  0  0  0  0  0  0
   -5.3083   -0.7500    0.0000 N   0  0  0  0  0  0  0  0  0  0  0  0
   -5.3083    0.7500    0.0000 N   0  0  0  0  0  0  0  0  0  0  0  0
   -3.8817    1.2135    0.0000 N   0  0  0  0  0  0  0  0  0  0  0  0
   -3.4182    2.6401    0.0000 C   0  0  0  0  0  0  0  0  0  0  0  0
   -1.9509    2.9520    0.0000 C   0  0  0  0  0  0  0  0  0  0  0  0
   -1.4874    4.3786    0.0000 C   0  0  0  0  0  0  0  0  0  0  0  0
   -2.4911    5.4933    0.0000 C   0  0  0  0  0  0  0  0  0  0  0  0
   -2.0276    6.9199    0.0000 C   0  0  0  0  0  0  0  0  0  0  0  0
   -0.5604    7.2317    0.0000 C   0  0  0  0  0  0  0  0  0  0  0  0
   -0.0968    8.6583    0.0000 C   0  0  0  0  0  0  0  0  0  0  0  0
   -1.1005    9.7730    0.0000 C   0  0  0  0  0  0  0  0  0  0  0  0
   -0.6370   11.1996    0.0000 C   0  0  0  0  0  0  0  0  0  0  0  0
    0.8302   11.5115    0.0000 C   0  0  0  0  0  0  0  0  0  0  0  0
    1.2937   12.9381    0.0000 C   0  0  0  0  0  0  0  0  0  0  0  0
    0.2901   14.0528    0.0000 C   0  0  0  0  0  0  0  0  0  0  0  0
   -1.1772   13.7409    0.0000 C   0  0  0  0  0  0  0  0  0  0  0  0
   -1.6407   12.3143    0.0000 C   0  0  0  0  0  0  0  0  0  0  0  0
   -2.5677    9.4612    0.0000 C   0  0  0  0  0  0  0  0  0  0  0  0
   -3.0313    8.0346    0.0000 C   0  0  0  0  0  0  0  0  0  0  0  0
   -4.4985    7.7227    0.0000 C   0  0  0  0  0  0  0  0  0  0  0  0
   -5.5022    8.8374    0.0000 C   0  0  0  0  0  0  0  0  0  0  0  0
   -6.9694    8.5256    0.0000 C   0  0  0  0  0  0  0  0  0  0  0  0
   -7.4329    7.0990    0.0000 C   0  0  0  0  0  0  0  0  0  0  0  0
   -6.4292    5.9843    0.0000 C   0  0  0  0  0  0  0  0  0  0  0  0
   -4.9620    6.2961    0.0000 C   0  0  0  0  0  0  0  0  0  0  0  0
   -3.9583    5.1814    0.0000 C   0  0  0  0  0  0  0  0  0  0  0  0
   -4.4218    3.7548    0.0000 C   0  0  0  0  0  0  0  0  0  0  0  0
   -0.7500   -1.2990    0.0000 C   0  0  0  0  0  0  0  0  0  0  0  0
   -1.5000   -2.5981    0.0000 O   0  0  0  0  0  0  0  0  0  0  0  0
    0.7500   -1.2990    0.0000 N   0  0  0  0  0  0  0  0  0  0  0  0
  1  2  1  0
  2  3  1  0
  3  4  2  0
  4  5  1  0
  5  6  2  0
  6  7  1  0
  7  8  2  0
  8  9  1  0
  9 10  2  0
 10 11  1  0
 11 12  1  0
 12 13  2  0
 13 14  1  0
 14 15  2  0
 15 16  1  0
 16 17  2  0
 17 18  1  0
 18 19  2  0
 19 20  1  0
 20 21  2  0
 21 22  1  0
 22 23  2  0
 23 24  1  0
 24 25  2  0
 19 26  1  0
 26 27  2  0
 27 28  1  0
 28 29  2  0
 29 30  1  0
 30 31  2  0
 31 32  1  0
 32 33  2  0
 15 34  1  0
 34 35  2  0
  6 36  1  0
 36 37  2  0
 36 38  1  0
 38  3  1  0
 11  7  1  0
 35 12  1  0
 27 16  1  0
 33 28  1  0
 25 20  1  0
M  END
>  <Title>  (205) 
idAAHWgen7

$$$$

     RDKit          2D

 30 30  0  0  0  0  0  0  0  0999 V2000
    8.9486   -1.2990    0.0000 C   0  0  0  0  0  0  0  0  0  0  0  0
    8.1986    0.0000    0.0000 O   0  0  0  0  0  0  0  0  0  0  0  0
    6.6986    0.0000    0.0000 C   0  0  0  0  0  0  0  0  0  0  0  0
    6.5306   -1.4906    0.0000 C   0  0  0  0  0  0  0  0  0  0  0  0
    6.0352   -2.9064    0.0000 C   0  0  0  0  0  0  0  0  0  0  0  0
    5.2371   -4.1765    0.0000 C   0  0  0  0  0  0  0  0  0  0  0  0
    4.1765   -5.2371    0.0000 C   0  0  0  0  0  0  0  0  0  0  0  0
    2.9064   -6.0352    0.0000 C   0  0  0  0  0  0  0  0  0  0  0  0
    1.4906   -6.5306    0.0000 C   0  0  0  0  0  0  0  0  0  0  0  0
   -0.0000   -6.6986    0.0000 C   0  0  0  0  0  0  0  0  0  0  0  0
   -1.4906   -6.5306    0.0000 C   0  0  0  0  0  0  0  0  0  0  0  0
   -2.9064   -6.0352    0.0000 C   0  0  0  0  0  0  0  0  0  0  0  0
   -4.1765   -5.2371    0.0000 C   0  0  0  0  0  0  0  0  0  0  0  0
   -5.2371   -4.1765    0.0000 C   0  0  0  0  0  0  0  0  0  0  0  0
   -6.0352   -2.9064    0.0000 C   0  0  0  0  0  0  0  0  0  0  0  0
   -6.5306   -1.4906    0.0000 C   0  0  0  0  0  0  0  0  0  0  0  0
   -6.6986    0.0000    0.0000 C   0  0  0  0  0  0  0  0  0  0  0  0
   -6.5306    1.4906    0.0000 C   0  0  0  0  0  0  0  0  0  0  0  0
   -6.0352    2.9064    0.0000 C   0  0  0  0  0  0  0  0  0  0  0  0
   -5.2371    4.1765    0.0000 C   0  0  0  0  0  0  0  0  0  0  0  0
   -4.1765    5.2371    0.0000 C   0  0  0  0  0  0  0  0  0  0  0  0
   -2.9064    6.0352    0.0000 C   0  0  0  0  0  0  0  0  0  0  0  0
   -1.4906    6.5306    0.0000 C   0  0  0  0  0  0  0  0  0  0  0  0
    0.0000    6.6986    0.0000 C   0  0  0  0  0  0  0  0  0  0  0  0
    1.4906    6.5306    0.0000 C   0  0  0  0  0  0  0  0  0  0  0  0
    2.9064    6.0352    0.0000 C   0  0  0  0  0  0  0  0  0  0  0  0
    4.1765    5.2371    0.0000 C   0  0  0  0  0  0  0  0  0  0  0  0
    5.2371    4.1765    0.0000 C   0  0  0  0  0  0  0  0  0  0  0  0
    6.0352    2.9064    0.0000 C   0  0  0  0  0  0  0  0  0  0  0  0
    6.5306    1.4906    0.0000 C   0  0  0  0  0  0  0  0  0  0  0  0
  1  2  1  0
  2  3  1  0
  3  4  2  0
  4  5  1  0
  5  6  2  0
  6  7  1  0
  7  8  2  0
  8  9  1  0
  9 10  2  0
 10 11  1  0
 11 12  2  0
 12 13  1  0
 13 14  2  0
 14 15  1  0
 15 16  2  0
 16 17  1  0
 17 18  2  0
 18 19  1  0
 19 20  2  0
 20 21  1  0
 21 22  2  0
 22 23  1  0
 23 24  2  0
 24 25  1  0
 25 26  2  0
 26 27  1  0
 27 28  2  0
 28 29  1  0
 29 30  2  0
 30  3  1  0
M  END
>  <Title>  (206) 
idAAHXgen7

$$$$

     RDKit          2D

 13 14  0  0  0  0  0  0  0  0999 V2000
    1.4115    6.1843    0.0000 C   0  0  0  0  0  0  0  0  0  0  0  0
    1.0777    4.7219    0.0000 C   0  0  0  0  0  0  0  0  0  0  0  0
    2.2505    3.7867    0.0000 C   0  0  0  0  0  0  0  0  0  0  0  0
    2.2505    2.2867    0.0000 C   0  0  0  0  0  0  0  0  0  0  0  0
    1.0777    1.3515    0.0000 C   0  0  0  0  0  0  0  0  0  0  0  0
    1.7286    0.0000    0.0000 C   0  0  0  0  0  0  0  0  0  0  0  0
    1.0777   -1.3515    0.0000 C   0  0  0  0  0  0  0  0  0  0  0  0
   -0.3846   -1.6852    0.0000 C   0  0  0  0  0  0  0  0  0  0  0  0
   -1.5574   -0.7500    0.0000 C   0  0  0  0  0  0  0  0  0  0  0  0
   -1.5574    0.7500    0.0000 C   0  0  0  0  0  0  0  0  0  0  0  0
   -0.3846    1.6852    0.0000 C   0  0  0  0  0  0  0  0  0  0  0  0
   -1.0355    3.0367    0.0000 C   0  0  0  0  0  0  0  0  0  0  0  0
   -0.3846    4.3881    0.0000 C   0  0  0  0  0  0  0  0  0  0  0  0
  1  2  1  0
  2  3  2  0
  3  4  1  0
  4  5  2  0
  5  6  1  0
  6  7  2  0
  7  8  1  0
  8  9  2  0
  9 10  1  0
 10 11  2  0
 11 12  1  0
 12 13  2  0
 13  2  1  0
 11  5  1  0
M  END
>  <Title>  (207) 
idAAHYgen7

$$$$

     RDKit          2D

 43 49  0  0  0  0  0  0  0  0999 V2000
    3.7500   -1.2990    0.0000 C   0  0  0  0  0  0  0  0  0  0  0  0
    3.0000    0.0000    0.0000 O   0  0  0  0  0  0  0  0  0  0  0  0
    1.5000    0.0000    0.0000 C   0  0  0  0  0  0  0  0  0  0  0  0
    0.7500   -1.2990    0.0000 C   0  0  0  0  0  0  0  0  0  0  0  0
   -0.7500   -1.2990    0.0000 C   0  0  0  0  0  0  0  0  0  0  0  0
   -1.5000    0.0000    0.0000 C   0  0  0  0  0  0  0  0  0  0  0  0
   -3.0000    0.0000    0.0000 C   0  0  0  0  0  0  0  0  0  0  0  0
   -3.8817   -1.2135    0.0000 N   0  0  0  0  0  0  0  0  0  0  0  0
   -5.3083   -0.7500    0.0000 N   0  0  0  0  0  0  0  0  0  0  0  0
   -5.3083    0.7500    0.0000 N   0  0  0  0  0  0  0  0  0  0  0  0
   -3.8817    1.2135    0.0000 N   0  0  0  0  0  0  0  0  0  0  0  0
   -3.4182    2.6401    0.0000 C   0  0  0  0  0  0  0  0  0  0  0  0
   -1.9509    2.9520    0.0000 C   0  0  0  0  0  0  0  0  0  0  0  0
   -1.4874    4.3786    0.0000 C   0  0  0  0  0  0  0  0  0  0  0  0
   -2.4911    5.4933    0.0000 C   0  0  0  0  0  0  0  0  0  0  0  0
   -2.0276    6.9199    0.0000 C   0  0  0  0  0  0  0  0  0  0  0  0
   -0.5604    7.2317    0.0000 C   0  0  0  0  0  0  0  0  0  0  0  0
   -0.0968    8.6583    0.0000 C   0  0  0  0  0  0  0  0  0  0  0  0
   -1.1005    9.7730    0.0000 C   0  0  0  0  0  0  0  0  0  0  0  0
   -2.5677    9.4612    0.0000 C   0  0  0  0  0  0  0  0  0  0  0  0
   -3.0313    8.0346    0.0000 C   0  0  0  0  0  0  0  0  0  0  0  0
   -3.9583    5.1814    0.0000 C   0  0  0  0  0  0  0  0  0  0  0  0
   -4.4218    3.7548    0.0000 C   0  0  0  0  0  0  0  0  0  0  0  0
   -5.8891    3.4430    0.0000 C   0  0  0  0  0  0  0  0  0  0  0  0
   -6.8928    4.5577    0.0000 C   0  0  0  0  0  0  0  0  0  0  0  0
   -8.3600    4.2458    0.0000 C   0  0  0  0  0  0  0  0  0  0  0  0
   -8.8235    2.8192    0.0000 C   0  0  0  0  0  0  0  0  0  0  0  0
  -10.2907    2.5074    0.0000 C   0  0  0  0  0  0  0  0  0  0  0  0
  -11.2944    3.6221    0.0000 C   0  0  0  0  0  0  0  0  0  0  0  0
  -12.7617    3.3102    0.0000 C   0  0  0  0  0  0  0  0  0  0  0  0
  -13.2252    1.8836    0.0000 C   0  0  0  0  0  0  0  0  0  0  0  0
  -14.6924    1.5718    0.0000 C   0  0  0  0  0  0  0  0  0  0  0  0
  -15.6961    2.6865    0.0000 C   0  0  0  0  0  0  0  0  0  0  0  0
  -17.1633    2.3746    0.0000 C   0  0  0  0  0  0  0  0  0  0  0  0
  -17.6268    0.9480    0.0000 C   0  0  0  0  0  0  0  0  0  0  0  0
  -16.6231   -0.1667    0.0000 C   0  0  0  0  0  0  0  0  0  0  0  0
  -15.1559    0.1452    0.0000 C   0  0  0  0  0  0  0  0  0  0  0  0
  -12.2215    0.7689    0.0000 C   0  0  0  0  0  0  0  0  0  0  0  0
  -10.7543    1.0808    0.0000 C   0  0  0  0  0  0  0  0  0  0  0  0
   -7.8198    1.7045    0.0000 C   0  0  0  0  0  0  0  0  0  0  0  0
   -6.3526    2.0164    0.0000 C   0  0  0  0  0  0  0  0  0  0  0  0
   -0.7500    1.2990    0.0000 C   0  0  0  0  0  0  0  0  0  0  0  0
    0.7500    1.2990    0.0000 C   0  0  0  0  0  0  0  0  0  0  0  0
  1  2  1  0
  2  3  1  0
  3  4  2  0
  4  5  1  0
  5  6  2  0
  6  7  1  0
  7  8  2  0
  8  9  1  0
  9 10  2  0
 10 11  1  0
 11 12  1  0
 12 13  2  0
 13 14  1  0
 14 15  2  0
 15 16  1  0
 16 17  2  0
 17 18  1  0
 18 19  2  0
 19 20  1  0
 20 21  2  0
 15 22  1  0
 22 23  2  0
 23 24  1  0
 24 25  2  0
 25 26  1  0
 26 27  2  0
 27 28  1  0
 28 29  2  0
 29 30  1  0
 30 31  2  0
 31 32  1  0
 32 33  2  0
 33 34  1  0
 34 35  2  0
 35 36  1  0
 36 37  2  0
 31 38  1  0
 38 39  2  0
 27 40  1  0
 40 41  2  0
  6 42  1  0
 42 43  2  0
 43  3  1  0
 11  7  1  0
 23 12  1  0
 41 24  1  0
 21 16  1  0
 39 28  1  0
 37 32  1  0
M  END
>  <Title>  (208) 
idAAHZgen7

$$$$

     RDKit          2D

 13 13  0  0  0  0  0  0  0  0999 V2000
    2.7760   -5.1962    0.0000 C   0  0  0  0  0  0  0  0  0  0  0  0
    3.5260   -3.8971    0.0000 C   0  0  0  0  0  0  0  0  0  0  0  0
    5.0260   -3.8971    0.0000 C   0  0  0  0  0  0  0  0  0  0  0  0
    2.7760   -2.5981    0.0000 C   0  0  0  0  0  0  0  0  0  0  0  0
    3.5260   -1.2990    0.0000 C   0  0  0  0  0  0  0  0  0  0  0  0
    5.0260   -1.2990    0.0000 C   0  0  0  0  0  0  0  0  0  0  0  0
    2.7760    0.0000    0.0000 C   0  0  0  0  0  0  0  0  0  0  0  0
    3.5260    1.2990    0.0000 O   0  0  0  0  0  0  0  0  0  0  0  0
    1.2760    0.0000    0.0000 N   0  0  0  0  0  0  0  0  0  0  0  0
    0.3943    1.2135    0.0000 C   0  0  0  0  0  0  0  0  0  0  0  0
   -1.0323    0.7500    0.0000 C   0  0  0  0  0  0  0  0  0  0  0  0
   -1.0323   -0.7500    0.0000 C   0  0  0  0  0  0  0  0  0  0  0  0
    0.3943   -1.2135    0.0000 C   0  0  0  0  0  0  0  0  0  0  0  0
  1  2  1  0
  2  3  1  0
  2  4  1  0
  4  5  1  0
  5  6  1  0
  5  7  1  0
  7  8  2  0
  7  9  1  0
  9 10  1  0
 10 11  2  0
 11 12  1  0
 12 13  2  0
 13  9  1  0
M  END
>  <Title>  (209) 
idAAIAgen7

$$$$

     RDKit          2D

 22 23  0  0  0  0  0  0  0  0999 V2000
   -7.6402   -0.2273    0.0000 C   0  0  0  0  0  0  0  0  0  0  0  0
   -6.3930   -1.0607    0.0000 C   0  0  0  0  0  0  0  0  0  0  0  0
   -6.9670   -2.4465    0.0000 C   0  0  0  0  0  0  0  0  0  0  0  0
   -6.9670   -3.9465    0.0000 C   0  0  0  0  0  0  0  0  0  0  0  0
   -6.3930   -5.3323    0.0000 C   0  0  0  0  0  0  0  0  0  0  0  0
   -5.3323   -6.3930    0.0000 C   0  0  0  0  0  0  0  0  0  0  0  0
   -3.9465   -6.9670    0.0000 C   0  0  0  0  0  0  0  0  0  0  0  0
   -2.4465   -6.9670    0.0000 C   0  0  0  0  0  0  0  0  0  0  0  0
   -1.0607   -6.3930    0.0000 C   0  0  0  0  0  0  0  0  0  0  0  0
    0.0000   -5.3323    0.0000 C   0  0  0  0  0  0  0  0  0  0  0  0
    0.5740   -3.9465    0.0000 C   0  0  0  0  0  0  0  0  0  0  0  0
    0.5740   -2.4465    0.0000 C   0  0  0  0  0  0  0  0  0  0  0  0
   -0.0000   -1.0607    0.0000 C   0  0  0  0  0  0  0  0  0  0  0  0
    1.0607    0.0000    0.0000 O   0  0  0  0  0  0  0  0  0  0  0  0
    0.0000    1.0607    0.0000 C   0  0  0  0  0  0  0  0  0  0  0  0
    0.0000    2.5607    0.0000 O   0  0  0  0  0  0  0  0  0  0  0  0
   -1.0607    0.0000    0.0000 C   0  0  0  0  0  0  0  0  0  0  0  0
   -2.4465    0.5740    0.0000 C   0  0  0  0  0  0  0  0  0  0  0  0
   -2.1538    2.0452    0.0000 O   0  0  0  0  0  0  0  0  0  0  0  0
   -3.9465    0.5740    0.0000 N   0  0  0  0  0  0  0  0  0  0  0  0
   -5.3323   -0.0000    0.0000 C   0  0  0  0  0  0  0  0  0  0  0  0
   -6.1657    1.2472    0.0000 O   0  0  0  0  0  0  0  0  0  0  0  0
  1  2  1  0
  2  3  2  0
  3  4  1  0
  4  5  2  0
  5  6  1  0
  6  7  2  0
  7  8  1  0
  8  9  2  0
  9 10  1  0
 10 11  2  0
 11 12  1  0
 12 13  2  0
 13 14  1  0
 14 15  1  0
 15 16  2  0
 15 17  1  0
 17 18  1  0
 18 19  2  0
 18 20  1  0
 20 21  1  0
 21 22  2  0
 21  2  1  0
 17 13  1  0
M  END
>  <Title>  (210) 
idAAIBgen7

$$$$

     RDKit          2D

 32 36  0  0  0  0  0  0  0  0999 V2000
    3.0000    0.0000    0.0000 C   0  0  0  0  0  0  0  0  0  0  0  0
    1.5000    0.0000    0.0000 C   0  0  0  0  0  0  0  0  0  0  0  0
    0.7500   -1.2990    0.0000 C   0  0  0  0  0  0  0  0  0  0  0  0
   -0.7500   -1.2990    0.0000 C   0  0  0  0  0  0  0  0  0  0  0  0
   -1.5000    0.0000    0.0000 C   0  0  0  0  0  0  0  0  0  0  0  0
   -3.0000    0.0000    0.0000 C   0  0  0  0  0  0  0  0  0  0  0  0
   -3.8817   -1.2135    0.0000 N   0  0  0  0  0  0  0  0  0  0  0  0
   -5.3083   -0.7500    0.0000 N   0  0  0  0  0  0  0  0  0  0  0  0
   -5.3083    0.7500    0.0000 N   0  0  0  0  0  0  0  0  0  0  0  0
   -3.8817    1.2135    0.0000 N   0  0  0  0  0  0  0  0  0  0  0  0
   -3.4182    2.6401    0.0000 C   0  0  0  0  0  0  0  0  0  0  0  0
   -1.9509    2.9520    0.0000 C   0  0  0  0  0  0  0  0  0  0  0  0
   -1.4874    4.3786    0.0000 C   0  0  0  0  0  0  0  0  0  0  0  0
   -2.4911    5.4933    0.0000 C   0  0  0  0  0  0  0  0  0  0  0  0
   -2.0276    6.9199    0.0000 C   0  0  0  0  0  0  0  0  0  0  0  0
   -3.0313    8.0346    0.0000 O   0  0  0  0  0  0  0  0  0  0  0  0
   -0.5604    7.2317    0.0000 N   0  0  0  0  0  0  0  0  0  0  0  0
   -0.0968    8.6583    0.0000 C   0  0  0  0  0  0  0  0  0  0  0  0
   -0.9785    9.8718    0.0000 N   0  0  0  0  0  0  0  0  0  0  0  0
   -0.0968   11.0854    0.0000 N   0  0  0  0  0  0  0  0  0  0  0  0
    1.3298   10.6218    0.0000 N   0  0  0  0  0  0  0  0  0  0  0  0
    1.3298    9.1218    0.0000 N   0  0  0  0  0  0  0  0  0  0  0  0
    2.5433    8.2402    0.0000 C   0  0  0  0  0  0  0  0  0  0  0  0
    2.3865    6.7484    0.0000 C   0  0  0  0  0  0  0  0  0  0  0  0
    3.6000    5.8667    0.0000 C   0  0  0  0  0  0  0  0  0  0  0  0
    4.9703    6.4768    0.0000 C   0  0  0  0  0  0  0  0  0  0  0  0
    5.1271    7.9686    0.0000 C   0  0  0  0  0  0  0  0  0  0  0  0
    3.9136    8.8503    0.0000 C   0  0  0  0  0  0  0  0  0  0  0  0
   -3.9583    5.1814    0.0000 C   0  0  0  0  0  0  0  0  0  0  0  0
   -4.4218    3.7548    0.0000 C   0  0  0  0  0  0  0  0  0  0  0  0
   -0.7500    1.2990    0.0000 C   0  0  0  0  0  0  0  0  0  0  0  0
    0.7500    1.2990    0.0000 C   0  0  0  0  0  0  0  0  0  0  0  0
  1  2  1  0
  2  3  2  0
  3  4  1  0
  4  5  2  0
  5  6  1  0
  6  7  2  0
  7  8  1  0
  8  9  2  0
  9 10  1  0
 10 11  1  0
 11 12  2  0
 12 13  1  0
 13 14  2  0
 14 15  1  0
 15 16  2  0
 15 17  1  0
 17 18  1  0
 18 19  2  0
 19 20  1  0
 20 21  2  0
 21 22  1  0
 22 23  1  0
 23 24  2  0
 24 25  1  0
 25 26  2  0
 26 27  1  0
 27 28  2  0
 14 29  1  0
 29 30  2  0
  5 31  1  0
 31 32  2  0
 32  2  1  0
 10  6  1  0
 30 11  1  0
 22 18  1  0
 28 23  1  0
M  END
>  <Title>  (211) 
idAAICgen7

$$$$

     RDKit          2D

 21 23  0  0  0  0  0  0  0  0999 V2000
    3.0000    0.0000    0.0000 C   0  0  0  0  0  0  0  0  0  0  0  0
    1.5000    0.0000    0.0000 C   0  0  0  0  0  0  0  0  0  0  0  0
    0.7500    1.2990    0.0000 C   0  0  0  0  0  0  0  0  0  0  0  0
   -0.7500    1.2990    0.0000 C   0  0  0  0  0  0  0  0  0  0  0  0
   -1.5000    0.0000    0.0000 C   0  0  0  0  0  0  0  0  0  0  0  0
   -3.0000    0.0000    0.0000 C   0  0  0  0  0  0  0  0  0  0  0  0
   -3.8817   -1.2135    0.0000 N   0  0  0  0  0  0  0  0  0  0  0  0
   -5.3083   -0.7500    0.0000 N   0  0  0  0  0  0  0  0  0  0  0  0
   -5.3083    0.7500    0.0000 N   0  0  0  0  0  0  0  0  0  0  0  0
   -3.8817    1.2135    0.0000 N   0  0  0  0  0  0  0  0  0  0  0  0
   -3.4182    2.6401    0.0000 C   0  0  0  0  0  0  0  0  0  0  0  0
   -1.9509    2.9520    0.0000 C   0  0  0  0  0  0  0  0  0  0  0  0
   -1.4874    4.3786    0.0000 C   0  0  0  0  0  0  0  0  0  0  0  0
   -2.4911    5.4933    0.0000 C   0  0  0  0  0  0  0  0  0  0  0  0
   -2.0276    6.9199    0.0000 O   0  0  0  0  0  0  0  0  0  0  0  0
   -3.9583    5.1814    0.0000 C   0  0  0  0  0  0  0  0  0  0  0  0
   -4.9620    6.2961    0.0000 C   0  0  0  0  0  0  0  0  0  0  0  0
   -4.4218    3.7548    0.0000 C   0  0  0  0  0  0  0  0  0  0  0  0
   -0.7500   -1.2990    0.0000 C   0  0  0  0  0  0  0  0  0  0  0  0
   -1.5000   -2.5981    0.0000 O   0  0  0  0  0  0  0  0  0  0  0  0
    0.7500   -1.2990    0.0000 N   0  0  0  0  0  0  0  0  0  0  0  0
  1  2  1  0
  2  3  2  0
  3  4  1  0
  4  5  2  0
  5  6  1  0
  6  7  2  0
  7  8  1  0
  8  9  2  0
  9 10  1  0
 10 11  1  0
 11 12  2  0
 12 13  1  0
 13 14  2  0
 14 15  1  0
 14 16  1  0
 16 17  1  0
 16 18  2  0
  5 19  1  0
 19 20  2  0
 19 21  1  0
 21  2  1  0
 10  6  1  0
 18 11  1  0
M  END
>  <Title>  (212) 
idAAIDgen7

$$$$

     RDKit          2D

  3  2  0  0  0  0  0  0  0  0999 V2000
    0.0000    0.0000    0.0000 C   0  0  0  0  0  0  0  0  0  0  0  0
    1.2990    0.7500    0.0000 C   0  0  0  0  0  0  0  0  0  0  0  0
    2.5981   -0.0000    0.0000 C   0  0  0  0  0  0  0  0  0  0  0  0
  1  2  1  0
  2  3  1  0
M  END
>  <Title>  (213) 
idAAIEgen7

$$$$

     RDKit          2D

 31 34  0  0  0  0  0  0  0  0999 V2000
    5.2500   -1.2990    0.0000 C   0  0  0  0  0  0  0  0  0  0  0  0
    3.7500   -1.2990    0.0000 C   0  0  0  0  0  0  0  0  0  0  0  0
    3.0000   -2.5981    0.0000 O   0  0  0  0  0  0  0  0  0  0  0  0
    3.0000    0.0000    0.0000 O   0  0  0  0  0  0  0  0  0  0  0  0
    1.5000    0.0000    0.0000 C   0  0  0  0  0  0  0  0  0  0  0  0
    0.7500   -1.2990    0.0000 C   0  0  0  0  0  0  0  0  0  0  0  0
   -0.7500   -1.2990    0.0000 C   0  0  0  0  0  0  0  0  0  0  0  0
   -1.5000    0.0000    0.0000 C   0  0  0  0  0  0  0  0  0  0  0  0
   -3.0000    0.0000    0.0000 C   0  0  0  0  0  0  0  0  0  0  0  0
   -3.7500   -1.2990    0.0000 O   0  0  0  0  0  0  0  0  0  0  0  0
   -3.7500    1.2990    0.0000 N   0  0  0  0  0  0  0  0  0  0  0  0
   -5.2500    1.2990    0.0000 C   0  0  0  0  0  0  0  0  0  0  0  0
   -6.1317    0.0855    0.0000 N   0  0  0  0  0  0  0  0  0  0  0  0
   -7.5583    0.5490    0.0000 N   0  0  0  0  0  0  0  0  0  0  0  0
   -7.5583    2.0490    0.0000 N   0  0  0  0  0  0  0  0  0  0  0  0
   -6.1317    2.5126    0.0000 N   0  0  0  0  0  0  0  0  0  0  0  0
   -5.6682    3.9391    0.0000 C   0  0  0  0  0  0  0  0  0  0  0  0
   -4.2009    4.2510    0.0000 C   0  0  0  0  0  0  0  0  0  0  0  0
   -3.7374    5.6776    0.0000 C   0  0  0  0  0  0  0  0  0  0  0  0
   -4.7411    6.7923    0.0000 C   0  0  0  0  0  0  0  0  0  0  0  0
   -4.2776    8.2189    0.0000 C   0  0  0  0  0  0  0  0  0  0  0  0
   -2.8104    8.5308    0.0000 C   0  0  0  0  0  0  0  0  0  0  0  0
   -2.3468    9.9574    0.0000 C   0  0  0  0  0  0  0  0  0  0  0  0
   -3.3505   11.0721    0.0000 C   0  0  0  0  0  0  0  0  0  0  0  0
   -4.8177   10.7602    0.0000 C   0  0  0  0  0  0  0  0  0  0  0  0
   -5.2813    9.3336    0.0000 C   0  0  0  0  0  0  0  0  0  0  0  0
   -6.2083    6.4805    0.0000 C   0  0  0  0  0  0  0  0  0  0  0  0
   -6.6718    5.0539    0.0000 C   0  0  0  0  0  0  0  0  0  0  0  0
   -0.7500    1.2990    0.0000 C   0  0  0  0  0  0  0  0  0  0  0  0
   -1.5000    2.5981    0.0000 O   0  0  0  0  0  0  0  0  0  0  0  0
    0.7500    1.2990    0.0000 N   0  0  0  0  0  0  0  0  0  0  0  0
  1  2  1  0
  2  3  2  0
  2  4  1  0
  4  5  1  0
  5  6  2  0
  6  7  1  0
  7  8  2  0
  8  9  1  0
  9 10  2  0
  9 11  1  0
 11 12  1  0
 12 13  2  0
 13 14  1  0
 14 15  2  0
 15 16  1  0
 16 17  1  0
 17 18  2  0
 18 19  1  0
 19 20  2  0
 20 21  1  0
 21 22  2  0
 22 23  1  0
 23 24  2  0
 24 25  1  0
 25 26  2  0
 20 27  1  0
 27 28  2  0
  8 29  1  0
 29 30  2  0
 29 31  1  0
 31  5  1  0
 16 12  1  0
 28 17  1  0
 26 21  1  0
M  END
>  <Title>  (214) 
idAAIFgen7

$$$$

     RDKit          2D

 23 25  0  0  0  0  0  0  0  0999 V2000
    3.0000    0.0000    0.0000 C   0  0  0  0  0  0  0  0  0  0  0  0
    1.5000    0.0000    0.0000 C   0  0  0  0  0  0  0  0  0  0  0  0
    0.7500   -1.2990    0.0000 C   0  0  0  0  0  0  0  0  0  0  0  0
   -0.7500   -1.2990    0.0000 C   0  0  0  0  0  0  0  0  0  0  0  0
   -1.5000    0.0000    0.0000 C   0  0  0  0  0  0  0  0  0  0  0  0
   -3.0000    0.0000    0.0000 C   0  0  0  0  0  0  0  0  0  0  0  0
   -3.7500   -1.2990    0.0000 O   0  0  0  0  0  0  0  0  0  0  0  0
   -3.7500    1.2990    0.0000 N   0  0  0  0  0  0  0  0  0  0  0  0
   -5.2500    1.2990    0.0000 C   0  0  0  0  0  0  0  0  0  0  0  0
   -6.1317    0.0855    0.0000 N   0  0  0  0  0  0  0  0  0  0  0  0
   -7.5583    0.5490    0.0000 N   0  0  0  0  0  0  0  0  0  0  0  0
   -7.5583    2.0490    0.0000 N   0  0  0  0  0  0  0  0  0  0  0  0
   -6.1317    2.5126    0.0000 N   0  0  0  0  0  0  0  0  0  0  0  0
   -5.6682    3.9391    0.0000 C   0  0  0  0  0  0  0  0  0  0  0  0
   -4.2009    4.2510    0.0000 C   0  0  0  0  0  0  0  0  0  0  0  0
   -3.7374    5.6776    0.0000 C   0  0  0  0  0  0  0  0  0  0  0  0
   -4.7411    6.7923    0.0000 C   0  0  0  0  0  0  0  0  0  0  0  0
   -4.2776    8.2189    0.0000 C   0  0  0  0  0  0  0  0  0  0  0  0
   -6.2083    6.4805    0.0000 C   0  0  0  0  0  0  0  0  0  0  0  0
   -7.2120    7.5952    0.0000 O   0  0  0  0  0  0  0  0  0  0  0  0
   -6.6718    5.0539    0.0000 N   0  0  0  0  0  0  0  0  0  0  0  0
   -0.7500    1.2990    0.0000 C   0  0  0  0  0  0  0  0  0  0  0  0
    0.7500    1.2990    0.0000 C   0  0  0  0  0  0  0  0  0  0  0  0
  1  2  1  0
  2  3  2  0
  3  4  1  0
  4  5  2  0
  5  6  1  0
  6  7  2  0
  6  8  1  0
  8  9  1  0
  9 10  2  0
 10 11  1  0
 11 12  2  0
 12 13  1  0
 13 14  1  0
 14 15  2  0
 15 16  1  0
 16 17  2  0
 17 18  1  0
 17 19  1  0
 19 20  2  0
 19 21  1  0
  5 22  1  0
 22 23  2  0
 23  2  1  0
 13  9  1  0
 21 14  1  0
M  END
>  <Title>  (215) 
idAAIGgen7

$$$$

     RDKit          2D

 22 25  0  0  0  0  0  0  0  0999 V2000
    3.0000    0.0000    0.0000 C   0  0  0  0  0  0  0  0  0  0  0  0
    1.5000    0.0000    0.0000 C   0  0  0  0  0  0  0  0  0  0  0  0
    0.7500   -1.2990    0.0000 C   0  0  0  0  0  0  0  0  0  0  0  0
   -0.7500   -1.2990    0.0000 C   0  0  0  0  0  0  0  0  0  0  0  0
   -1.5000    0.0000    0.0000 C   0  0  0  0  0  0  0  0  0  0  0  0
   -3.0000    0.0000    0.0000 N   0  0  0  0  0  0  0  0  0  0  0  0
   -3.7500    1.2990    0.0000 N   0  0  0  0  0  0  0  0  0  0  0  0
   -3.0000    2.5981    0.0000 N   0  0  0  0  0  0  0  0  0  0  0  0
   -3.7500    3.8971    0.0000 C   0  0  0  0  0  0  0  0  0  0  0  0
   -5.2418    4.0539    0.0000 N   0  0  0  0  0  0  0  0  0  0  0  0
   -5.5537    5.5211    0.0000 N   0  0  0  0  0  0  0  0  0  0  0  0
   -4.2546    6.2711    0.0000 N   0  0  0  0  0  0  0  0  0  0  0  0
   -3.1399    5.2674    0.0000 N   0  0  0  0  0  0  0  0  0  0  0  0
   -1.6727    5.5793    0.0000 C   0  0  0  0  0  0  0  0  0  0  0  0
   -0.6690    4.4646    0.0000 C   0  0  0  0  0  0  0  0  0  0  0  0
    0.7982    4.7765    0.0000 C   0  0  0  0  0  0  0  0  0  0  0  0
    1.2618    6.2030    0.0000 C   0  0  0  0  0  0  0  0  0  0  0  0
    0.2581    7.3178    0.0000 C   0  0  0  0  0  0  0  0  0  0  0  0
   -1.2091    7.0059    0.0000 C   0  0  0  0  0  0  0  0  0  0  0  0
   -1.5000    2.5981    0.0000 C   0  0  0  0  0  0  0  0  0  0  0  0
   -0.7500    1.2990    0.0000 C   0  0  0  0  0  0  0  0  0  0  0  0
    0.7500    1.2990    0.0000 C   0  0  0  0  0  0  0  0  0  0  0  0
  1  2  1  0
  2  3  2  0
  3  4  1  0
  4  5  2  0
  5  6  1  0
  6  7  2  0
  7  8  1  0
  8  9  1  0
  9 10  2  0
 10 11  1  0
 11 12  2  0
 12 13  1  0
 13 14  1  0
 14 15  2  0
 15 16  1  0
 16 17  2  0
 17 18  1  0
 18 19  2  0
  8 20  1  0
 20 21  2  0
 21 22  1  0
 22  2  1  0
 21  5  1  0
 13  9  1  0
 19 14  1  0
M  END
>  <Title>  (216) 
idAAIHgen7

$$$$

     RDKit          2D

 36 41  0  0  0  0  0  0  0  0999 V2000
    3.0000    0.0000    0.0000 C   0  0  0  0  0  0  0  0  0  0  0  0
    1.5000    0.0000    0.0000 C   0  0  0  0  0  0  0  0  0  0  0  0
    0.7500    1.2990    0.0000 C   0  0  0  0  0  0  0  0  0  0  0  0
   -0.7500    1.2990    0.0000 C   0  0  0  0  0  0  0  0  0  0  0  0
   -1.5000    0.0000    0.0000 C   0  0  0  0  0  0  0  0  0  0  0  0
   -3.0000    0.0000    0.0000 C   0  0  0  0  0  0  0  0  0  0  0  0
   -3.8817   -1.2135    0.0000 N   0  0  0  0  0  0  0  0  0  0  0  0
   -5.3083   -0.7500    0.0000 N   0  0  0  0  0  0  0  0  0  0  0  0
   -5.3083    0.7500    0.0000 N   0  0  0  0  0  0  0  0  0  0  0  0
   -3.8817    1.2135    0.0000 N   0  0  0  0  0  0  0  0  0  0  0  0
   -3.4182    2.6401    0.0000 C   0  0  0  0  0  0  0  0  0  0  0  0
   -4.2998    3.8536    0.0000 C   0  0  0  0  0  0  0  0  0  0  0  0
   -3.4182    5.0672    0.0000 C   0  0  0  0  0  0  0  0  0  0  0  0
   -1.9916    4.6036    0.0000 C   0  0  0  0  0  0  0  0  0  0  0  0
   -0.7780    5.4853    0.0000 C   0  0  0  0  0  0  0  0  0  0  0  0
    0.6485    5.0218    0.0000 N   0  0  0  0  0  0  0  0  0  0  0  0
    1.5302    6.2353    0.0000 N   0  0  0  0  0  0  0  0  0  0  0  0
    0.6485    7.4488    0.0000 N   0  0  0  0  0  0  0  0  0  0  0  0
   -0.7780    6.9853    0.0000 N   0  0  0  0  0  0  0  0  0  0  0  0
   -1.9916    7.8670    0.0000 C   0  0  0  0  0  0  0  0  0  0  0  0
   -3.3619    7.2569    0.0000 C   0  0  0  0  0  0  0  0  0  0  0  0
   -4.5754    8.1386    0.0000 C   0  0  0  0  0  0  0  0  0  0  0  0
   -4.4186    9.6303    0.0000 C   0  0  0  0  0  0  0  0  0  0  0  0
   -5.6321   10.5120    0.0000 C   0  0  0  0  0  0  0  0  0  0  0  0
   -7.0025    9.9019    0.0000 C   0  0  0  0  0  0  0  0  0  0  0  0
   -8.2160   10.7836    0.0000 C   0  0  0  0  0  0  0  0  0  0  0  0
   -8.0592   12.2754    0.0000 C   0  0  0  0  0  0  0  0  0  0  0  0
   -6.6889   12.8855    0.0000 C   0  0  0  0  0  0  0  0  0  0  0  0
   -5.4754   12.0038    0.0000 C   0  0  0  0  0  0  0  0  0  0  0  0
   -3.0483   10.2405    0.0000 C   0  0  0  0  0  0  0  0  0  0  0  0
   -1.8348    9.3588    0.0000 C   0  0  0  0  0  0  0  0  0  0  0  0
   -1.9916    3.1036    0.0000 C   0  0  0  0  0  0  0  0  0  0  0  0
   -0.7780    2.2220    0.0000 O   0  0  0  0  0  0  0  0  0  0  0  0
   -0.7500   -1.2990    0.0000 C   0  0  0  0  0  0  0  0  0  0  0  0
   -1.5000   -2.5981    0.0000 O   0  0  0  0  0  0  0  0  0  0  0  0
    0.7500   -1.2990    0.0000 N   0  0  0  0  0  0  0  0  0  0  0  0
  1  2  1  0
  2  3  2  0
  3  4  1  0
  4  5  2  0
  5  6  1  0
  6  7  2  0
  7  8  1  0
  8  9  2  0
  9 10  1  0
 10 11  1  0
 11 12  2  0
 12 13  1  0
 13 14  2  0
 14 15  1  0
 15 16  2  0
 16 17  1  0
 17 18  2  0
 18 19  1  0
 19 20  1  0
 20 21  2  0
 21 22  1  0
 22 23  2  0
 23 24  1  0
 24 25  2  0
 25 26  1  0
 26 27  2  0
 27 28  1  0
 28 29  2  0
 23 30  1  0
 30 31  2  0
 14 32  1  0
 32 33  2  0
  5 34  1  0
 34 35  2  0
 34 36  1  0
 36  2  1  0
 10  6  1  0
 32 11  1  0
 19 15  1  0
 31 20  1  0
 29 24  1  0
M  END
>  <Title>  (217) 
idAAIIgen7

$$$$

     RDKit          2D

 40 45  0  0  0  0  0  0  0  0999 V2000
    3.0000    0.0000    0.0000 C   0  0  0  0  0  0  0  0  0  0  0  0
    1.5000    0.0000    0.0000 C   0  0  0  0  0  0  0  0  0  0  0  0
    0.7500   -1.2990    0.0000 C   0  0  0  0  0  0  0  0  0  0  0  0
   -0.7500   -1.2990    0.0000 C   0  0  0  0  0  0  0  0  0  0  0  0
   -1.5000    0.0000    0.0000 C   0  0  0  0  0  0  0  0  0  0  0  0
   -3.0000    0.0000    0.0000 C   0  0  0  0  0  0  0  0  0  0  0  0
   -3.7500   -1.2990    0.0000 O   0  0  0  0  0  0  0  0  0  0  0  0
   -3.7500    1.2990    0.0000 N   0  0  0  0  0  0  0  0  0  0  0  0
   -5.2500    1.2990    0.0000 C   0  0  0  0  0  0  0  0  0  0  0  0
   -6.1317    0.0855    0.0000 N   0  0  0  0  0  0  0  0  0  0  0  0
   -7.5583    0.5490    0.0000 N   0  0  0  0  0  0  0  0  0  0  0  0
   -7.5583    2.0490    0.0000 N   0  0  0  0  0  0  0  0  0  0  0  0
   -6.1317    2.5126    0.0000 N   0  0  0  0  0  0  0  0  0  0  0  0
   -5.6682    3.9391    0.0000 C   0  0  0  0  0  0  0  0  0  0  0  0
   -4.2009    4.2510    0.0000 C   0  0  0  0  0  0  0  0  0  0  0  0
   -3.7374    5.6776    0.0000 C   0  0  0  0  0  0  0  0  0  0  0  0
   -4.7411    6.7923    0.0000 C   0  0  0  0  0  0  0  0  0  0  0  0
   -4.2776    8.2189    0.0000 C   0  0  0  0  0  0  0  0  0  0  0  0
   -2.8104    8.5308    0.0000 C   0  0  0  0  0  0  0  0  0  0  0  0
   -2.3468    9.9574    0.0000 C   0  0  0  0  0  0  0  0  0  0  0  0
   -3.3505   11.0721    0.0000 C   0  0  0  0  0  0  0  0  0  0  0  0
   -2.8870   12.4987    0.0000 C   0  0  0  0  0  0  0  0  0  0  0  0
   -1.4198   12.8105    0.0000 C   0  0  0  0  0  0  0  0  0  0  0  0
   -0.9563   14.2371    0.0000 C   0  0  0  0  0  0  0  0  0  0  0  0
   -1.9599   15.3518    0.0000 C   0  0  0  0  0  0  0  0  0  0  0  0
   -3.4272   15.0400    0.0000 C   0  0  0  0  0  0  0  0  0  0  0  0
   -3.8907   13.6134    0.0000 C   0  0  0  0  0  0  0  0  0  0  0  0
   -4.8177   10.7602    0.0000 C   0  0  0  0  0  0  0  0  0  0  0  0
   -5.2813    9.3336    0.0000 C   0  0  0  0  0  0  0  0  0  0  0  0
   -6.2083    6.4805    0.0000 C   0  0  0  0  0  0  0  0  0  0  0  0
   -6.6718    5.0539    0.0000 C   0  0  0  0  0  0  0  0  0  0  0  0
   -8.1391    4.7420    0.0000 C   0  0  0  0  0  0  0  0  0  0  0  0
   -9.1428    5.8567    0.0000 C   0  0  0  0  0  0  0  0  0  0  0  0
  -10.6100    5.5448    0.0000 C   0  0  0  0  0  0  0  0  0  0  0  0
  -11.0735    4.1183    0.0000 C   0  0  0  0  0  0  0  0  0  0  0  0
  -10.0698    3.0035    0.0000 C   0  0  0  0  0  0  0  0  0  0  0  0
   -8.6026    3.3154    0.0000 C   0  0  0  0  0  0  0  0  0  0  0  0
   -0.7500    1.2990    0.0000 C   0  0  0  0  0  0  0  0  0  0  0  0
   -1.5000    2.5981    0.0000 O   0  0  0  0  0  0  0  0  0  0  0  0
    0.7500    1.2990    0.0000 N   0  0  0  0  0  0  0  0  0  0  0  0
  1  2  1  0
  2  3  2  0
  3  4  1  0
  4  5  2  0
  5  6  1  0
  6  7  2  0
  6  8  1  0
  8  9  1  0
  9 10  2  0
 10 11  1  0
 11 12  2  0
 12 13  1  0
 13 14  1  0
 14 15  2  0
 15 16  1  0
 16 17  2  0
 17 18  1  0
 18 19  2  0
 19 20  1  0
 20 21  2  0
 21 22  1  0
 22 23  2  0
 23 24  1  0
 24 25  2  0
 25 26  1  0
 26 27  2  0
 21 28  1  0
 28 29  2  0
 17 30  1  0
 30 31  2  0
 31 32  1  0
 32 33  2  0
 33 34  1  0
 34 35  2  0
 35 36  1  0
 36 37  2  0
  5 38  1  0
 38 39  2  0
 38 40  1  0
 40  2  1  0
 13  9  1  0
 31 14  1  0
 37 32  1  0
 29 18  1  0
 27 22  1  0
M  END
>  <Title>  (218) 
idAAIJgen7

$$$$

     RDKit          2D

 45 45  0  0  0  0  0  0  0  0999 V2000
   13.7861   -1.2990    0.0000 C   0  0  0  0  0  0  0  0  0  0  0  0
   12.2861   -1.2990    0.0000 O   0  0  0  0  0  0  0  0  0  0  0  0
   11.5361    0.0000    0.0000 C   0  0  0  0  0  0  0  0  0  0  0  0
   10.0361    0.0000    0.0000 C   0  0  0  0  0  0  0  0  0  0  0  0
    9.9240   -1.4958    0.0000 C   0  0  0  0  0  0  0  0  0  0  0  0
    9.5902   -2.9582    0.0000 C   0  0  0  0  0  0  0  0  0  0  0  0
    9.0422   -4.3545    0.0000 C   0  0  0  0  0  0  0  0  0  0  0  0
    8.2922   -5.6535    0.0000 C   0  0  0  0  0  0  0  0  0  0  0  0
    7.3570   -6.8263    0.0000 C   0  0  0  0  0  0  0  0  0  0  0  0
    6.2574   -7.8466    0.0000 C   0  0  0  0  0  0  0  0  0  0  0  0
    5.0181   -8.6915    0.0000 C   0  0  0  0  0  0  0  0  0  0  0  0
    3.6666   -9.3424    0.0000 C   0  0  0  0  0  0  0  0  0  0  0  0
    2.2332   -9.7845    0.0000 C   0  0  0  0  0  0  0  0  0  0  0  0
    0.7500  -10.0081    0.0000 C   0  0  0  0  0  0  0  0  0  0  0  0
   -0.7500  -10.0081    0.0000 C   0  0  0  0  0  0  0  0  0  0  0  0
   -2.2332   -9.7845    0.0000 C   0  0  0  0  0  0  0  0  0  0  0  0
   -3.6666   -9.3424    0.0000 C   0  0  0  0  0  0  0  0  0  0  0  0
   -5.0181   -8.6915    0.0000 C   0  0  0  0  0  0  0  0  0  0  0  0
   -6.2574   -7.8466    0.0000 C   0  0  0  0  0  0  0  0  0  0  0  0
   -7.3570   -6.8263    0.0000 C   0  0  0  0  0  0  0  0  0  0  0  0
   -8.2922   -5.6535    0.0000 C   0  0  0  0  0  0  0  0  0  0  0  0
   -9.0422   -4.3545    0.0000 C   0  0  0  0  0  0  0  0  0  0  0  0
   -9.5902   -2.9582    0.0000 C   0  0  0  0  0  0  0  0  0  0  0  0
   -9.9240   -1.4958    0.0000 C   0  0  0  0  0  0  0  0  0  0  0  0
  -10.0361    0.0000    0.0000 C   0  0  0  0  0  0  0  0  0  0  0  0
   -9.9240    1.4958    0.0000 C   0  0  0  0  0  0  0  0  0  0  0  0
   -9.5902    2.9582    0.0000 C   0  0  0  0  0  0  0  0  0  0  0  0
   -9.0422    4.3545    0.0000 C   0  0  0  0  0  0  0  0  0  0  0  0
   -8.2922    5.6535    0.0000 C   0  0  0  0  0  0  0  0  0  0  0  0
   -7.3570    6.8263    0.0000 C   0  0  0  0  0  0  0  0  0  0  0  0
   -6.2574    7.8466    0.0000 C   0  0  0  0  0  0  0  0  0  0  0  0
   -5.0181    8.6915    0.0000 C   0  0  0  0  0  0  0  0  0  0  0  0
   -3.6666    9.3424    0.0000 C   0  0  0  0  0  0  0  0  0  0  0  0
   -2.2332    9.7845    0.0000 C   0  0  0  0  0  0  0  0  0  0  0  0
   -0.7500   10.0081    0.0000 C   0  0  0  0  0  0  0  0  0  0  0  0
    0.7500   10.0081    0.0000 C   0  0  0  0  0  0  0  0  0  0  0  0
    2.2332    9.7845    0.0000 C   0  0  0  0  0  0  0  0  0  0  0  0
    3.6666    9.3424    0.0000 C   0  0  0  0  0  0  0  0  0  0  0  0
    5.0181    8.6915    0.0000 C   0  0  0  0  0  0  0  0  0  0  0  0
    6.2574    7.8466    0.0000 C   0  0  0  0  0  0  0  0  0  0  0  0
    7.3570    6.8263    0.0000 C   0  0  0  0  0  0  0  0  0  0  0  0
    8.2922    5.6535    0.0000 C   0  0  0  0  0  0  0  0  0  0  0  0
    9.0422    4.3545    0.0000 C   0  0  0  0  0  0  0  0  0  0  0  0
    9.5902    2.9582    0.0000 C   0  0  0  0  0  0  0  0  0  0  0  0
    9.9240    1.4958    0.0000 C   0  0  0  0  0  0  0  0  0  0  0  0
  1  2  1  0
  2  3  1  0
  3  4  1  0
  4  5  1  0
  5  6  2  0
  6  7  1  0
  7  8  2  0
  8  9  1  0
  9 10  2  0
 10 11  1  0
 11 12  2  0
 12 13  1  0
 13 14  2  0
 14 15  1  0
 15 16  2  0
 16 17  1  0
 17 18  2  0
 18 19  1  0
 19 20  2  0
 20 21  1  0
 21 22  2  0
 22 23  1  0
 23 24  2  0
 24 25  1  0
 25 26  2  0
 26 27  1  0
 27 28  2  0
 28 29  1  0
 29 30  2  0
 30 31  1  0
 31 32  2  0
 32 33  1  0
 33 34  2  0
 34 35  1  0
 35 36  2  0
 36 37  1  0
 37 38  2  0
 38 39  1  0
 39 40  2  0
 40 41  1  0
 41 42  1  0
 42 43  1  0
 43 44  1  0
 44 45  1  0
 45  4  1  0
M  END
>  <Title>  (219) 
idAAIKgen7

$$$$

     RDKit          2D

 38 42  0  0  0  0  0  0  0  0999 V2000
    6.0000    2.5981    0.0000 C   0  0  0  0  0  0  0  0  0  0  0  0
    5.2500    1.2990    0.0000 C   0  0  0  0  0  0  0  0  0  0  0  0
    6.0000    0.0000    0.0000 O   0  0  0  0  0  0  0  0  0  0  0  0
    3.7500    1.2990    0.0000 N   0  0  0  0  0  0  0  0  0  0  0  0
    3.0000    0.0000    0.0000 C   0  0  0  0  0  0  0  0  0  0  0  0
    3.7500   -1.2990    0.0000 O   0  0  0  0  0  0  0  0  0  0  0  0
    1.5000    0.0000    0.0000 C   0  0  0  0  0  0  0  0  0  0  0  0
    0.7500    1.2990    0.0000 C   0  0  0  0  0  0  0  0  0  0  0  0
   -0.7500    1.2990    0.0000 C   0  0  0  0  0  0  0  0  0  0  0  0
   -1.5000    0.0000    0.0000 C   0  0  0  0  0  0  0  0  0  0  0  0
   -3.0000    0.0000    0.0000 C   0  0  0  0  0  0  0  0  0  0  0  0
   -3.7500   -1.2990    0.0000 O   0  0  0  0  0  0  0  0  0  0  0  0
   -3.7500    1.2990    0.0000 N   0  0  0  0  0  0  0  0  0  0  0  0
   -5.2500    1.2990    0.0000 C   0  0  0  0  0  0  0  0  0  0  0  0
   -6.1317    0.0855    0.0000 N   0  0  0  0  0  0  0  0  0  0  0  0
   -7.5583    0.5490    0.0000 N   0  0  0  0  0  0  0  0  0  0  0  0
   -7.5583    2.0490    0.0000 N   0  0  0  0  0  0  0  0  0  0  0  0
   -6.1317    2.5126    0.0000 N   0  0  0  0  0  0  0  0  0  0  0  0
   -5.6682    3.9391    0.0000 C   0  0  0  0  0  0  0  0  0  0  0  0
   -6.5498    5.1527    0.0000 C   0  0  0  0  0  0  0  0  0  0  0  0
   -5.6682    6.3662    0.0000 C   0  0  0  0  0  0  0  0  0  0  0  0
   -4.2416    5.9027    0.0000 C   0  0  0  0  0  0  0  0  0  0  0  0
   -3.0280    6.7844    0.0000 C   0  0  0  0  0  0  0  0  0  0  0  0
   -3.0280    8.2844    0.0000 N   0  0  0  0  0  0  0  0  0  0  0  0
   -1.6015    8.7479    0.0000 N   0  0  0  0  0  0  0  0  0  0  0  0
   -0.7198    7.5344    0.0000 N   0  0  0  0  0  0  0  0  0  0  0  0
   -1.6015    6.3208    0.0000 N   0  0  0  0  0  0  0  0  0  0  0  0
   -1.1379    4.8942    0.0000 C   0  0  0  0  0  0  0  0  0  0  0  0
   -2.1416    3.7795    0.0000 C   0  0  0  0  0  0  0  0  0  0  0  0
   -1.6781    2.3529    0.0000 C   0  0  0  0  0  0  0  0  0  0  0  0
   -0.2109    2.0411    0.0000 C   0  0  0  0  0  0  0  0  0  0  0  0
    0.7928    3.1558    0.0000 C   0  0  0  0  0  0  0  0  0  0  0  0
    0.3293    4.5824    0.0000 C   0  0  0  0  0  0  0  0  0  0  0  0
   -4.2416    4.4027    0.0000 C   0  0  0  0  0  0  0  0  0  0  0  0
   -3.0280    3.5210    0.0000 O   0  0  0  0  0  0  0  0  0  0  0  0
   -0.7500   -1.2990    0.0000 C   0  0  0  0  0  0  0  0  0  0  0  0
   -1.5000   -2.5981    0.0000 O   0  0  0  0  0  0  0  0  0  0  0  0
    0.7500   -1.2990    0.0000 N   0  0  0  0  0  0  0  0  0  0  0  0
  1  2  1  0
  2  3  2  0
  2  4  1  0
  4  5  1  0
  5  6  2  0
  5  7  1  0
  7  8  1  0
  8  9  1  0
  9 10  2  0
 10 11  1  0
 11 12  2  0
 11 13  1  0
 13 14  1  0
 14 15  2  0
 15 16  1  0
 16 17  2  0
 17 18  1  0
 18 19  1  0
 19 20  2  0
 20 21  1  0
 21 22  2  0
 22 23  1  0
 23 24  2  0
 24 25  1  0
 25 26  2  0
 26 27  1  0
 27 28  1  0
 28 29  2  0
 29 30  1  0
 30 31  2  0
 31 32  1  0
 32 33  2  0
 22 34  1  0
 34 35  2  0
 10 36  1  0
 36 37  2  0
 36 38  1  0
 38  7  1  0
 18 14  1  0
 34 19  1  0
 27 23  1  0
 33 28  1  0
M  END
>  <Title>  (220) 
idAAILgen7

$$$$

     RDKit          2D

 58 63  0  0  0  0  0  0  0  0999 V2000
    0.2211   -5.7325    0.0000 C   0  0  0  0  0  0  0  0  0  0  0  0
    0.6094   -4.2836    0.0000 O   0  0  0  0  0  0  0  0  0  0  0  0
    2.0583   -3.8954    0.0000 C   0  0  0  0  0  0  0  0  0  0  0  0
    3.1189   -4.9560    0.0000 C   0  0  0  0  0  0  0  0  0  0  0  0
    4.5678   -4.5678    0.0000 C   0  0  0  0  0  0  0  0  0  0  0  0
    4.9560   -3.1189    0.0000 C   0  0  0  0  0  0  0  0  0  0  0  0
    6.4049   -2.7307    0.0000 N   0  0  0  0  0  0  0  0  0  0  0  0
    7.5706   -3.6747    0.0000 N   0  0  0  0  0  0  0  0  0  0  0  0
    8.8286   -2.8577    0.0000 N   0  0  0  0  0  0  0  0  0  0  0  0
    8.4404   -1.4088    0.0000 N   0  0  0  0  0  0  0  0  0  0  0  0
    6.9425   -1.3303    0.0000 C   0  0  0  0  0  0  0  0  0  0  0  0
    6.1255   -0.0723    0.0000 N   0  0  0  0  0  0  0  0  0  0  0  0
    6.8065    1.2642    0.0000 C   0  0  0  0  0  0  0  0  0  0  0  0
    8.3044    1.3427    0.0000 O   0  0  0  0  0  0  0  0  0  0  0  0
    5.9895    2.5222    0.0000 C   0  0  0  0  0  0  0  0  0  0  0  0
    6.9664    3.6605    0.0000 C   0  0  0  0  0  0  0  0  0  0  0  0
    7.1728    5.1462    0.0000 C   0  0  0  0  0  0  0  0  0  0  0  0
    6.5432    6.5077    0.0000 C   0  0  0  0  0  0  0  0  0  0  0  0
    5.2775    7.3126    0.0000 C   0  0  0  0  0  0  0  0  0  0  0  0
    3.7775    7.3055    0.0000 C   0  0  0  0  0  0  0  0  0  0  0  0
    2.5195    6.4885    0.0000 C   0  0  0  0  0  0  0  0  0  0  0  0
    1.9029    5.1211    0.0000 C   0  0  0  0  0  0  0  0  0  0  0  0
    2.1234    3.6374    0.0000 C   0  0  0  0  0  0  0  0  0  0  0  0
    3.1111    2.5085    0.0000 C   0  0  0  0  0  0  0  0  0  0  0  0
    4.5523    2.0928    0.0000 C   0  0  0  0  0  0  0  0  0  0  0  0
    3.8954   -2.0583    0.0000 N   0  0  0  0  0  0  0  0  0  0  0  0
    2.4465   -2.4465    0.0000 C   0  0  0  0  0  0  0  0  0  0  0  0
    1.3858   -1.3858    0.0000 N   0  0  0  0  0  0  0  0  0  0  0  0
    1.9598    0.0000    0.0000 N   0  0  0  0  0  0  0  0  0  0  0  0
    1.3858    1.3858    0.0000 N   0  0  0  0  0  0  0  0  0  0  0  0
    0.0000    1.9598    0.0000 C   0  0  0  0  0  0  0  0  0  0  0  0
   -1.3858    1.3858    0.0000 C   0  0  0  0  0  0  0  0  0  0  0  0
   -1.9598    0.0000    0.0000 C   0  0  0  0  0  0  0  0  0  0  0  0
   -1.3858   -1.3858    0.0000 C   0  0  0  0  0  0  0  0  0  0  0  0
   -0.0000   -1.9598    0.0000 N   0  0  0  0  0  0  0  0  0  0  0  0
   -3.0554   -2.0221    0.0000 C   0  0  0  0  0  0  0  0  0  0  0  0
   -4.4413   -1.4480    0.0000 C   0  0  0  0  0  0  0  0  0  0  0  0
   -5.3544   -0.2580    0.0000 C   0  0  0  0  0  0  0  0  0  0  0  0
   -5.5502    1.2291    0.0000 C   0  0  0  0  0  0  0  0  0  0  0  0
   -4.9762    2.6150    0.0000 C   0  0  0  0  0  0  0  0  0  0  0  0
   -3.7861    3.5281    0.0000 C   0  0  0  0  0  0  0  0  0  0  0  0
   -2.2990    3.7239    0.0000 N   0  0  0  0  0  0  0  0  0  0  0  0
   -0.9131    3.1499    0.0000 C   0  0  0  0  0  0  0  0  0  0  0  0
   -0.0000    4.3399    0.0000 O   0  0  0  0  0  0  0  0  0  0  0  0
   -4.7716    2.9323    0.0000 C   0  0  0  0  0  0  0  0  0  0  0  0
   -5.6802    5.2207    0.0000 C   0  0  0  0  0  0  0  0  0  0  0  0
   -4.6395    6.3011    0.0000 C   0  0  0  0  0  0  0  0  0  0  0  0
   -5.0548    7.7424    0.0000 C   0  0  0  0  0  0  0  0  0  0  0  0
   -4.0142    8.8227    0.0000 C   0  0  0  0  0  0  0  0  0  0  0  0
   -2.5583    8.4617    0.0000 O   0  0  0  0  0  0  0  0  0  0  0  0
   -4.4294   10.2641    0.0000 N   0  0  0  0  0  0  0  0  0  0  0  0
   -3.3888   11.3444    0.0000 O   0  0  0  0  0  0  0  0  0  0  0  0
   -6.5107    8.1035    0.0000 N   0  0  0  0  0  0  0  0  0  0  0  0
   -6.9259    9.5449    0.0000 C   0  0  0  0  0  0  0  0  0  0  0  0
   -7.5513    7.0232    0.0000 C   0  0  0  0  0  0  0  0  0  0  0  0
   -4.6317    1.6704    0.0000 C   0  0  0  0  0  0  0  0  0  0  0  0
   -7.7692    3.3539    0.0000 O   0  0  0  0  0  0  0  0  0  0  0  0
   -5.5721    1.0490    0.0000 N   0  0  0  0  0  0  0  0  0  0  0  0
  1  2  1  0
  2  3  1  0
  3  4  2  0
  4  5  1  0
  5  6  2  0
  6  7  1  0
  7  8  1  0
  8  9  2  0
  9 10  1  0
 10 11  2  0
 11 12  1  0
 12 13  1  0
 13 14  2  0
 13 15  1  0
 15 16  1  0
 16 17  1  0
 17 18  1  0
 18 19  1  0
 19 20  1  0
 20 21  1  0
 21 22  1  0
 22 23  1  0
 23 24  1  0
 24 25  1  0
  6 26  1  0
 26 27  2  0
 27 28  1  0
 28 29  1  0
 29 30  2  0
 30 31  1  0
 31 32  2  0
 32 33  1  0
 33 34  2  0
 34 35  1  0
 34 36  1  0
 36 37  2  0
 37 38  1  0
 38 39  2  0
 39 40  1  0
 40 41  2  0
 41 42  1  0
 42 43  1  0
 43 44  2  0
 41 45  1  0
 45 46  2  3
 46 47  1  0
 47 48  2  3
 48 49  1  0
 49 50  2  0
 49 51  1  0
 51 52  1  0
 48 53  1  0
 53 54  1  0
 53 55  1  0
 45 56  1  0
 56 57  2  0
 56 58  1  0
 27  3  1  0
 35 28  1  0
 58 38  1  0
 11  7  1  0
 25 15  1  0
 43 31  1  0
M  END
>  <Title>  (221) 
idAAIMgen7

$$$$

     RDKit          2D

 29 33  0  0  0  0  0  0  0  0999 V2000
    3.0000    0.0000    0.0000 C   0  0  0  0  0  0  0  0  0  0  0  0
    1.5000    0.0000    0.0000 C   0  0  0  0  0  0  0  0  0  0  0  0
    0.7500   -1.2990    0.0000 C   0  0  0  0  0  0  0  0  0  0  0  0
   -0.7500   -1.2990    0.0000 C   0  0  0  0  0  0  0  0  0  0  0  0
   -1.5000    0.0000    0.0000 C   0  0  0  0  0  0  0  0  0  0  0  0
   -3.0000    0.0000    0.0000 C   0  0  0  0  0  0  0  0  0  0  0  0
   -3.8817   -1.2135    0.0000 N   0  0  0  0  0  0  0  0  0  0  0  0
   -5.3083   -0.7500    0.0000 N   0  0  0  0  0  0  0  0  0  0  0  0
   -5.3083    0.7500    0.0000 N   0  0  0  0  0  0  0  0  0  0  0  0
   -3.8817    1.2135    0.0000 N   0  0  0  0  0  0  0  0  0  0  0  0
   -3.4182    2.6401    0.0000 C   0  0  0  0  0  0  0  0  0  0  0  0
   -1.9509    2.9520    0.0000 C   0  0  0  0  0  0  0  0  0  0  0  0
   -1.4874    4.3786    0.0000 C   0  0  0  0  0  0  0  0  0  0  0  0
   -2.4911    5.4933    0.0000 C   0  0  0  0  0  0  0  0  0  0  0  0
   -2.0276    6.9199    0.0000 C   0  0  0  0  0  0  0  0  0  0  0  0
   -2.9093    8.1334    0.0000 N   0  0  0  0  0  0  0  0  0  0  0  0
   -2.0276    9.3469    0.0000 N   0  0  0  0  0  0  0  0  0  0  0  0
   -0.6010    8.8834    0.0000 N   0  0  0  0  0  0  0  0  0  0  0  0
   -0.6010    7.3834    0.0000 N   0  0  0  0  0  0  0  0  0  0  0  0
    0.6125    6.5017    0.0000 C   0  0  0  0  0  0  0  0  0  0  0  0
    0.4557    5.0099    0.0000 C   0  0  0  0  0  0  0  0  0  0  0  0
    1.6693    4.1283    0.0000 C   0  0  0  0  0  0  0  0  0  0  0  0
    3.0396    4.7384    0.0000 C   0  0  0  0  0  0  0  0  0  0  0  0
    3.1964    6.2301    0.0000 C   0  0  0  0  0  0  0  0  0  0  0  0
    1.9829    7.1118    0.0000 C   0  0  0  0  0  0  0  0  0  0  0  0
   -3.9583    5.1814    0.0000 C   0  0  0  0  0  0  0  0  0  0  0  0
   -4.4218    3.7548    0.0000 C   0  0  0  0  0  0  0  0  0  0  0  0
   -0.7500    1.2990    0.0000 C   0  0  0  0  0  0  0  0  0  0  0  0
    0.7500    1.2990    0.0000 C   0  0  0  0  0  0  0  0  0  0  0  0
  1  2  1  0
  2  3  2  0
  3  4  1  0
  4  5  2  0
  5  6  1  0
  6  7  2  0
  7  8  1  0
  8  9  2  0
  9 10  1  0
 10 11  1  0
 11 12  2  0
 12 13  1  0
 13 14  2  0
 14 15  1  0
 15 16  2  0
 16 17  1  0
 17 18  2  0
 18 19  1  0
 19 20  1  0
 20 21  2  0
 21 22  1  0
 22 23  2  0
 23 24  1  0
 24 25  2  0
 14 26  1  0
 26 27  2  0
  5 28  1  0
 28 29  2  0
 29  2  1  0
 10  6  1  0
 27 11  1  0
 19 15  1  0
 25 20  1  0
M  END
>  <Title>  (222) 
idAAINgen7

$$$$

     RDKit          2D

 21 21  0  0  0  0  0  0  0  0999 V2000
    6.2943    0.0000    0.0000 O   0  0  0  0  0  0  0  0  0  0  0  0
    4.7943    0.0000    0.0000 C   0  0  0  0  0  0  0  0  0  0  0  0
    4.5597   -1.4815    0.0000 C   0  0  0  0  0  0  0  0  0  0  0  0
    3.8787   -2.8180    0.0000 C   0  0  0  0  0  0  0  0  0  0  0  0
    2.8180   -3.8787    0.0000 C   0  0  0  0  0  0  0  0  0  0  0  0
    1.4815   -4.5597    0.0000 C   0  0  0  0  0  0  0  0  0  0  0  0
   -0.0000   -4.7943    0.0000 C   0  0  0  0  0  0  0  0  0  0  0  0
   -1.4815   -4.5597    0.0000 C   0  0  0  0  0  0  0  0  0  0  0  0
   -2.8180   -3.8787    0.0000 C   0  0  0  0  0  0  0  0  0  0  0  0
   -3.8787   -2.8180    0.0000 C   0  0  0  0  0  0  0  0  0  0  0  0
   -4.5597   -1.4815    0.0000 C   0  0  0  0  0  0  0  0  0  0  0  0
   -4.7943    0.0000    0.0000 C   0  0  0  0  0  0  0  0  0  0  0  0
   -4.5597    1.4815    0.0000 C   0  0  0  0  0  0  0  0  0  0  0  0
   -3.8787    2.8180    0.0000 C   0  0  0  0  0  0  0  0  0  0  0  0
   -2.8180    3.8787    0.0000 C   0  0  0  0  0  0  0  0  0  0  0  0
   -1.4815    4.5597    0.0000 C   0  0  0  0  0  0  0  0  0  0  0  0
    0.0000    4.7943    0.0000 C   0  0  0  0  0  0  0  0  0  0  0  0
    1.4815    4.5597    0.0000 C   0  0  0  0  0  0  0  0  0  0  0  0
    2.8180    3.8787    0.0000 C   0  0  0  0  0  0  0  0  0  0  0  0
    3.8787    2.8180    0.0000 C   0  0  0  0  0  0  0  0  0  0  0  0
    4.5597    1.4815    0.0000 C   0  0  0  0  0  0  0  0  0  0  0  0
  1  2  1  0
  2  3  2  0
  3  4  1  0
  4  5  2  0
  5  6  1  0
  6  7  2  0
  7  8  1  0
  8  9  2  0
  9 10  1  0
 10 11  2  0
 11 12  1  0
 12 13  2  0
 13 14  1  0
 14 15  2  0
 15 16  1  0
 16 17  2  0
 17 18  1  0
 18 19  2  0
 19 20  1  0
 20 21  2  0
 21  2  1  0
M  END
>  <Title>  (223) 
idAAIOgen7

$$$$

     RDKit          2D

 36 41  0  0  0  0  0  0  0  0999 V2000
    3.0000    0.0000    0.0000 C   0  0  0  0  0  0  0  0  0  0  0  0
    1.5000    0.0000    0.0000 C   0  0  0  0  0  0  0  0  0  0  0  0
    0.7500   -1.2990    0.0000 C   0  0  0  0  0  0  0  0  0  0  0  0
   -0.7500   -1.2990    0.0000 C   0  0  0  0  0  0  0  0  0  0  0  0
   -1.5000    0.0000    0.0000 C   0  0  0  0  0  0  0  0  0  0  0  0
   -3.0000    0.0000    0.0000 C   0  0  0  0  0  0  0  0  0  0  0  0
   -3.8817   -1.2135    0.0000 N   0  0  0  0  0  0  0  0  0  0  0  0
   -5.3083   -0.7500    0.0000 N   0  0  0  0  0  0  0  0  0  0  0  0
   -5.3083    0.7500    0.0000 N   0  0  0  0  0  0  0  0  0  0  0  0
   -3.8817    1.2135    0.0000 N   0  0  0  0  0  0  0  0  0  0  0  0
   -3.4182    2.6401    0.0000 C   0  0  0  0  0  0  0  0  0  0  0  0
   -1.9509    2.9520    0.0000 C   0  0  0  0  0  0  0  0  0  0  0  0
   -1.4874    4.3786    0.0000 C   0  0  0  0  0  0  0  0  0  0  0  0
   -2.4911    5.4933    0.0000 C   0  0  0  0  0  0  0  0  0  0  0  0
   -2.0276    6.9199    0.0000 C   0  0  0  0  0  0  0  0  0  0  0  0
   -0.5604    7.2317    0.0000 C   0  0  0  0  0  0  0  0  0  0  0  0
   -0.0968    8.6583    0.0000 C   0  0  0  0  0  0  0  0  0  0  0  0
   -1.1005    9.7730    0.0000 C   0  0  0  0  0  0  0  0  0  0  0  0
   -2.5677    9.4612    0.0000 C   0  0  0  0  0  0  0  0  0  0  0  0
   -3.0313    8.0346    0.0000 C   0  0  0  0  0  0  0  0  0  0  0  0
   -3.9583    5.1814    0.0000 C   0  0  0  0  0  0  0  0  0  0  0  0
   -4.4218    3.7548    0.0000 C   0  0  0  0  0  0  0  0  0  0  0  0
   -5.8891    3.4430    0.0000 C   0  0  0  0  0  0  0  0  0  0  0  0
   -6.8928    4.5577    0.0000 C   0  0  0  0  0  0  0  0  0  0  0  0
   -8.3600    4.2458    0.0000 C   0  0  0  0  0  0  0  0  0  0  0  0
   -8.8235    2.8192    0.0000 C   0  0  0  0  0  0  0  0  0  0  0  0
  -10.2907    2.5074    0.0000 C   0  0  0  0  0  0  0  0  0  0  0  0
  -11.2944    3.6221    0.0000 C   0  0  0  0  0  0  0  0  0  0  0  0
  -12.7617    3.3102    0.0000 C   0  0  0  0  0  0  0  0  0  0  0  0
  -13.2252    1.8836    0.0000 C   0  0  0  0  0  0  0  0  0  0  0  0
  -12.2215    0.7689    0.0000 C   0  0  0  0  0  0  0  0  0  0  0  0
  -10.7543    1.0808    0.0000 C   0  0  0  0  0  0  0  0  0  0  0  0
   -7.8198    1.7045    0.0000 C   0  0  0  0  0  0  0  0  0  0  0  0
   -6.3526    2.0164    0.0000 C   0  0  0  0  0  0  0  0  0  0  0  0
   -0.7500    1.2990    0.0000 C   0  0  0  0  0  0  0  0  0  0  0  0
    0.7500    1.2990    0.0000 C   0  0  0  0  0  0  0  0  0  0  0  0
  1  2  1  0
  2  3  2  0
  3  4  1  0
  4  5  2  0
  5  6  1  0
  6  7  2  0
  7  8  1  0
  8  9  2  0
  9 10  1  0
 10 11  1  0
 11 12  2  0
 12 13  1  0
 13 14  2  0
 14 15  1  0
 15 16  2  0
 16 17  1  0
 17 18  2  0
 18 19  1  0
 19 20  2  0
 14 21  1  0
 21 22  2  0
 22 23  1  0
 23 24  2  0
 24 25  1  0
 25 26  2  0
 26 27  1  0
 27 28  2  0
 28 29  1  0
 29 30  2  0
 30 31  1  0
 31 32  2  0
 26 33  1  0
 33 34  2  0
  5 35  1  0
 35 36  2  0
 36  2  1  0
 10  6  1  0
 22 11  1  0
 34 23  1  0
 20 15  1  0
 32 27  1  0
M  END
>  <Title>  (224) 
idAAIPgen7

$$$$

     RDKit          2D

 20 20  0  0  0  0  0  0  0  0999 V2000
    6.5691   -1.2990    0.0000 C   0  0  0  0  0  0  0  0  0  0  0  0
    5.8191    0.0000    0.0000 O   0  0  0  0  0  0  0  0  0  0  0  0
    4.3191    0.0000    0.0000 C   0  0  0  0  0  0  0  0  0  0  0  0
    4.0586   -1.4772    0.0000 C   0  0  0  0  0  0  0  0  0  0  0  0
    3.3086   -2.7762    0.0000 C   0  0  0  0  0  0  0  0  0  0  0  0
    2.1595   -3.7404    0.0000 C   0  0  0  0  0  0  0  0  0  0  0  0
    0.7500   -4.2535    0.0000 C   0  0  0  0  0  0  0  0  0  0  0  0
   -0.7500   -4.2535    0.0000 C   0  0  0  0  0  0  0  0  0  0  0  0
   -2.1595   -3.7404    0.0000 C   0  0  0  0  0  0  0  0  0  0  0  0
   -3.3086   -2.7762    0.0000 C   0  0  0  0  0  0  0  0  0  0  0  0
   -4.0586   -1.4772    0.0000 C   0  0  0  0  0  0  0  0  0  0  0  0
   -4.3191    0.0000    0.0000 C   0  0  0  0  0  0  0  0  0  0  0  0
   -4.0586    1.4772    0.0000 C   0  0  0  0  0  0  0  0  0  0  0  0
   -3.3086    2.7762    0.0000 C   0  0  0  0  0  0  0  0  0  0  0  0
   -2.1595    3.7404    0.0000 C   0  0  0  0  0  0  0  0  0  0  0  0
   -0.7500    4.2535    0.0000 C   0  0  0  0  0  0  0  0  0  0  0  0
    0.7500    4.2535    0.0000 C   0  0  0  0  0  0  0  0  0  0  0  0
    2.1595    3.7404    0.0000 C   0  0  0  0  0  0  0  0  0  0  0  0
    3.3086    2.7762    0.0000 C   0  0  0  0  0  0  0  0  0  0  0  0
    4.0586    1.4772    0.0000 C   0  0  0  0  0  0  0  0  0  0  0  0
  1  2  1  0
  2  3  1  0
  3  4  2  0
  4  5  1  0
  5  6  2  0
  6  7  1  0
  7  8  2  0
  8  9  1  0
  9 10  2  0
 10 11  1  0
 11 12  2  0
 12 13  1  0
 13 14  2  0
 14 15  1  0
 15 16  2  0
 16 17  1  0
 17 18  2  0
 18 19  1  0
 19 20  2  0
 20  3  1  0
M  END
>  <Title>  (225) 
idAAIQgen7

$$$$

     RDKit          2D

 29 32  0  0  0  0  0  0  0  0999 V2000
    3.7500   -1.2990    0.0000 C   0  0  0  0  0  0  0  0  0  0  0  0
    3.0000    0.0000    0.0000 O   0  0  0  0  0  0  0  0  0  0  0  0
    1.5000    0.0000    0.0000 C   0  0  0  0  0  0  0  0  0  0  0  0
    0.7500   -1.2990    0.0000 C   0  0  0  0  0  0  0  0  0  0  0  0
   -0.7500   -1.2990    0.0000 C   0  0  0  0  0  0  0  0  0  0  0  0
   -1.5000    0.0000    0.0000 C   0  0  0  0  0  0  0  0  0  0  0  0
   -3.0000    0.0000    0.0000 C   0  0  0  0  0  0  0  0  0  0  0  0
   -3.7500   -1.2990    0.0000 O   0  0  0  0  0  0  0  0  0  0  0  0
   -3.7500    1.2990    0.0000 N   0  0  0  0  0  0  0  0  0  0  0  0
   -5.2500    1.2990    0.0000 C   0  0  0  0  0  0  0  0  0  0  0  0
   -6.1317    0.0855    0.0000 N   0  0  0  0  0  0  0  0  0  0  0  0
   -7.5583    0.5490    0.0000 N   0  0  0  0  0  0  0  0  0  0  0  0
   -7.5583    2.0490    0.0000 N   0  0  0  0  0  0  0  0  0  0  0  0
   -6.1317    2.5126    0.0000 N   0  0  0  0  0  0  0  0  0  0  0  0
   -5.6682    3.9391    0.0000 C   0  0  0  0  0  0  0  0  0  0  0  0
   -6.5498    5.1527    0.0000 C   0  0  0  0  0  0  0  0  0  0  0  0
   -5.6682    6.3662    0.0000 C   0  0  0  0  0  0  0  0  0  0  0  0
   -4.2416    5.9027    0.0000 C   0  0  0  0  0  0  0  0  0  0  0  0
   -3.0280    6.7844    0.0000 C   0  0  0  0  0  0  0  0  0  0  0  0
   -1.6577    6.1742    0.0000 C   0  0  0  0  0  0  0  0  0  0  0  0
   -0.4442    7.0559    0.0000 C   0  0  0  0  0  0  0  0  0  0  0  0
   -0.6010    8.5477    0.0000 C   0  0  0  0  0  0  0  0  0  0  0  0
   -1.9713    9.1578    0.0000 C   0  0  0  0  0  0  0  0  0  0  0  0
   -3.1848    8.2761    0.0000 C   0  0  0  0  0  0  0  0  0  0  0  0
   -4.2416    4.4027    0.0000 C   0  0  0  0  0  0  0  0  0  0  0  0
   -3.0280    3.5210    0.0000 O   0  0  0  0  0  0  0  0  0  0  0  0
   -0.7500    1.2990    0.0000 C   0  0  0  0  0  0  0  0  0  0  0  0
   -1.5000    2.5981    0.0000 O   0  0  0  0  0  0  0  0  0  0  0  0
    0.7500    1.2990    0.0000 N   0  0  0  0  0  0  0  0  0  0  0  0
  1  2  1  0
  2  3  1  0
  3  4  2  0
  4  5  1  0
  5  6  2  0
  6  7  1  0
  7  8  2  0
  7  9  1  0
  9 10  1  0
 10 11  2  0
 11 12  1  0
 12 13  2  0
 13 14  1  0
 14 15  1  0
 15 16  2  0
 16 17  1  0
 17 18  2  0
 18 19  1  0
 19 20  2  0
 20 21  1  0
 21 22  2  0
 22 23  1  0
 23 24  2  0
 18 25  1  0
 25 26  2  0
  6 27  1  0
 27 28  2  0
 27 29  1  0
 29  3  1  0
 14 10  1  0
 25 15  1  0
 24 19  1  0
M  END
>  <Title>  (226) 
idAAIRgen7

$$$$

     RDKit          2D

 29 32  0  0  0  0  0  0  0  0999 V2000
    3.7500   -1.2990    0.0000 C   0  0  0  0  0  0  0  0  0  0  0  0
    3.0000    0.0000    0.0000 O   0  0  0  0  0  0  0  0  0  0  0  0
    1.5000    0.0000    0.0000 C   0  0  0  0  0  0  0  0  0  0  0  0
    0.7500   -1.2990    0.0000 C   0  0  0  0  0  0  0  0  0  0  0  0
   -0.7500   -1.2990    0.0000 C   0  0  0  0  0  0  0  0  0  0  0  0
   -1.5000    0.0000    0.0000 C   0  0  0  0  0  0  0  0  0  0  0  0
   -3.0000    0.0000    0.0000 C   0  0  0  0  0  0  0  0  0  0  0  0
   -3.7500   -1.2990    0.0000 O   0  0  0  0  0  0  0  0  0  0  0  0
   -3.7500    1.2990    0.0000 N   0  0  0  0  0  0  0  0  0  0  0  0
   -5.2500    1.2990    0.0000 C   0  0  0  0  0  0  0  0  0  0  0  0
   -6.1317    0.0855    0.0000 N   0  0  0  0  0  0  0  0  0  0  0  0
   -7.5583    0.5490    0.0000 N   0  0  0  0  0  0  0  0  0  0  0  0
   -7.5583    2.0490    0.0000 N   0  0  0  0  0  0  0  0  0  0  0  0
   -6.1317    2.5126    0.0000 N   0  0  0  0  0  0  0  0  0  0  0  0
   -5.6682    3.9391    0.0000 C   0  0  0  0  0  0  0  0  0  0  0  0
   -4.2009    4.2510    0.0000 C   0  0  0  0  0  0  0  0  0  0  0  0
   -3.7374    5.6776    0.0000 C   0  0  0  0  0  0  0  0  0  0  0  0
   -4.7411    6.7923    0.0000 C   0  0  0  0  0  0  0  0  0  0  0  0
   -4.2776    8.2189    0.0000 C   0  0  0  0  0  0  0  0  0  0  0  0
   -2.8104    8.5308    0.0000 C   0  0  0  0  0  0  0  0  0  0  0  0
   -2.3468    9.9574    0.0000 C   0  0  0  0  0  0  0  0  0  0  0  0
   -3.3505   11.0721    0.0000 C   0  0  0  0  0  0  0  0  0  0  0  0
   -4.8177   10.7602    0.0000 C   0  0  0  0  0  0  0  0  0  0  0  0
   -5.2813    9.3336    0.0000 C   0  0  0  0  0  0  0  0  0  0  0  0
   -6.2083    6.4805    0.0000 C   0  0  0  0  0  0  0  0  0  0  0  0
   -6.6718    5.0539    0.0000 C   0  0  0  0  0  0  0  0  0  0  0  0
   -0.7500    1.2990    0.0000 C   0  0  0  0  0  0  0  0  0  0  0  0
   -1.5000    2.5981    0.0000 O   0  0  0  0  0  0  0  0  0  0  0  0
    0.7500    1.2990    0.0000 N   0  0  0  0  0  0  0  0  0  0  0  0
  1  2  1  0
  2  3  1  0
  3  4  2  0
  4  5  1  0
  5  6  2  0
  6  7  1  0
  7  8  2  0
  7  9  1  0
  9 10  1  0
 10 11  2  0
 11 12  1  0
 12 13  2  0
 13 14  1  0
 14 15  1  0
 15 16  2  0
 16 17  1  0
 17 18  2  0
 18 19  1  0
 19 20  2  0
 20 21  1  0
 21 22  2  0
 22 23  1  0
 23 24  2  0
 18 25  1  0
 25 26  2  0
  6 27  1  0
 27 28  2  0
 27 29  1  0
 29  3  1  0
 14 10  1  0
 26 15  1  0
 24 19  1  0
M  END
>  <Title>  (227) 
idAAISgen7

$$$$

     RDKit          2D

 26 28  0  0  0  0  0  0  0  0999 V2000
    3.0000    0.0000    0.0000 C   0  0  0  0  0  0  0  0  0  0  0  0
    1.5000    0.0000    0.0000 C   0  0  0  0  0  0  0  0  0  0  0  0
    0.7500   -1.2990    0.0000 C   0  0  0  0  0  0  0  0  0  0  0  0
   -0.7500   -1.2990    0.0000 C   0  0  0  0  0  0  0  0  0  0  0  0
   -1.5000    0.0000    0.0000 C   0  0  0  0  0  0  0  0  0  0  0  0
   -3.0000    0.0000    0.0000 C   0  0  0  0  0  0  0  0  0  0  0  0
   -3.7500   -1.2990    0.0000 O   0  0  0  0  0  0  0  0  0  0  0  0
   -3.7500    1.2990    0.0000 O   0  0  0  0  0  0  0  0  0  0  0  0
   -5.2500    1.2990    0.0000 C   0  0  0  0  0  0  0  0  0  0  0  0
   -6.1317    0.0855    0.0000 N   0  0  0  0  0  0  0  0  0  0  0  0
   -7.5583    0.5490    0.0000 N   0  0  0  0  0  0  0  0  0  0  0  0
   -7.5583    2.0490    0.0000 N   0  0  0  0  0  0  0  0  0  0  0  0
   -6.1317    2.5126    0.0000 N   0  0  0  0  0  0  0  0  0  0  0  0
   -5.6682    3.9391    0.0000 C   0  0  0  0  0  0  0  0  0  0  0  0
   -4.2009    4.2510    0.0000 C   0  0  0  0  0  0  0  0  0  0  0  0
   -3.7374    5.6776    0.0000 C   0  0  0  0  0  0  0  0  0  0  0  0
   -4.7411    6.7923    0.0000 C   0  0  0  0  0  0  0  0  0  0  0  0
   -4.2776    8.2189    0.0000 C   0  0  0  0  0  0  0  0  0  0  0  0
   -5.2813    9.3336    0.0000 O   0  0  0  0  0  0  0  0  0  0  0  0
   -2.8104    8.5308    0.0000 N   0  0  0  0  0  0  0  0  0  0  0  0
   -2.3468    9.9574    0.0000 O   0  0  0  0  0  0  0  0  0  0  0  0
   -6.2083    6.4805    0.0000 C   0  0  0  0  0  0  0  0  0  0  0  0
   -6.6718    5.0539    0.0000 C   0  0  0  0  0  0  0  0  0  0  0  0
   -0.7500    1.2990    0.0000 C   0  0  0  0  0  0  0  0  0  0  0  0
   -1.5000    2.5981    0.0000 O   0  0  0  0  0  0  0  0  0  0  0  0
    0.7500    1.2990    0.0000 N   0  0  0  0  0  0  0  0  0  0  0  0
  1  2  1  0
  2  3  2  0
  3  4  1  0
  4  5  2  0
  5  6  1  0
  6  7  2  0
  6  8  1  0
  8  9  1  0
  9 10  2  0
 10 11  1  0
 11 12  2  0
 12 13  1  0
 13 14  1  0
 14 15  2  0
 15 16  1  0
 16 17  2  0
 17 18  1  0
 18 19  2  0
 18 20  1  0
 20 21  1  0
 17 22  1  0
 22 23  1  0
  5 24  1  0
 24 25  2  0
 24 26  1  0
 26  2  1  0
 13  9  1  0
 23 14  1  0
M  END
>  <Title>  (228) 
idAAITgen7

$$$$

     RDKit          2D

 29 31  0  0  0  0  0  0  0  0999 V2000
    5.1478   -1.2990    0.0000 C   0  0  0  0  0  0  0  0  0  0  0  0
    4.3978    0.0000    0.0000 O   0  0  0  0  0  0  0  0  0  0  0  0
    2.8978    0.0000    0.0000 C   0  0  0  0  0  0  0  0  0  0  0  0
    2.5095   -1.4489    0.0000 C   0  0  0  0  0  0  0  0  0  0  0  0
    1.4489   -2.5095    0.0000 C   0  0  0  0  0  0  0  0  0  0  0  0
   -0.0000   -2.8978    0.0000 C   0  0  0  0  0  0  0  0  0  0  0  0
   -1.4489   -2.5095    0.0000 C   0  0  0  0  0  0  0  0  0  0  0  0
   -2.5095   -1.4489    0.0000 C   0  0  0  0  0  0  0  0  0  0  0  0
   -2.8978    0.0000    0.0000 C   0  0  0  0  0  0  0  0  0  0  0  0
   -2.5095    1.4489    0.0000 C   0  0  0  0  0  0  0  0  0  0  0  0
   -1.4489    2.5095    0.0000 C   0  0  0  0  0  0  0  0  0  0  0  0
    0.0000    2.8978    0.0000 C   0  0  0  0  0  0  0  0  0  0  0  0
    0.0000    4.3978    0.0000 C   0  0  0  0  0  0  0  0  0  0  0  0
   -1.2135    5.2795    0.0000 N   0  0  0  0  0  0  0  0  0  0  0  0
   -0.7500    6.7060    0.0000 N   0  0  0  0  0  0  0  0  0  0  0  0
    0.7500    6.7060    0.0000 N   0  0  0  0  0  0  0  0  0  0  0  0
    1.2135    5.2795    0.0000 N   0  0  0  0  0  0  0  0  0  0  0  0
    2.6401    4.8159    0.0000 C   0  0  0  0  0  0  0  0  0  0  0  0
    2.9520    3.3487    0.0000 C   0  0  0  0  0  0  0  0  0  0  0  0
    4.3786    2.8852    0.0000 C   0  0  0  0  0  0  0  0  0  0  0  0
    5.4933    3.8889    0.0000 C   0  0  0  0  0  0  0  0  0  0  0  0
    6.9199    3.4254    0.0000 C   0  0  0  0  0  0  0  0  0  0  0  0
    8.0346    4.4290    0.0000 O   0  0  0  0  0  0  0  0  0  0  0  0
    7.2317    1.9581    0.0000 N   0  0  0  0  0  0  0  0  0  0  0  0
    8.6583    1.4946    0.0000 O   0  0  0  0  0  0  0  0  0  0  0  0
    5.1814    5.3561    0.0000 C   0  0  0  0  0  0  0  0  0  0  0  0
    3.7548    5.8196    0.0000 C   0  0  0  0  0  0  0  0  0  0  0  0
    1.4489    2.5095    0.0000 C   0  0  0  0  0  0  0  0  0  0  0  0
    2.5095    1.4489    0.0000 C   0  0  0  0  0  0  0  0  0  0  0  0
  1  2  1  0
  2  3  1  0
  3  4  2  0
  4  5  1  0
  5  6  2  0
  6  7  1  0
  7  8  2  0
  8  9  1  0
  9 10  2  0
 10 11  1  0
 11 12  2  0
 12 13  1  0
 13 14  2  0
 14 15  1  0
 15 16  2  0
 16 17  1  0
 17 18  1  0
 18 19  2  0
 19 20  1  0
 20 21  2  0
 21 22  1  0
 22 23  2  0
 22 24  1  0
 24 25  1  0
 21 26  1  0
 26 27  1  0
 12 28  1  0
 28 29  2  0
 29  3  1  0
 17 13  1  0
 27 18  1  0
M  END
>  <Title>  (229) 
idAAIUgen7

$$$$

     RDKit          2D

 31 34  0  0  0  0  0  0  0  0999 V2000
    3.7500   -1.2990    0.0000 C   0  0  0  0  0  0  0  0  0  0  0  0
    3.0000    0.0000    0.0000 O   0  0  0  0  0  0  0  0  0  0  0  0
    1.5000    0.0000    0.0000 C   0  0  0  0  0  0  0  0  0  0  0  0
    0.7500   -1.2990    0.0000 C   0  0  0  0  0  0  0  0  0  0  0  0
   -0.7500   -1.2990    0.0000 C   0  0  0  0  0  0  0  0  0  0  0  0
   -1.5000    0.0000    0.0000 C   0  0  0  0  0  0  0  0  0  0  0  0
   -3.0000    0.0000    0.0000 C   0  0  0  0  0  0  0  0  0  0  0  0
   -3.7500   -1.2990    0.0000 O   0  0  0  0  0  0  0  0  0  0  0  0
   -3.7500    1.2990    0.0000 N   0  0  0  0  0  0  0  0  0  0  0  0
   -5.2500    1.2990    0.0000 C   0  0  0  0  0  0  0  0  0  0  0  0
   -6.1317    0.0855    0.0000 N   0  0  0  0  0  0  0  0  0  0  0  0
   -7.5583    0.5490    0.0000 N   0  0  0  0  0  0  0  0  0  0  0  0
   -7.5583    2.0490    0.0000 N   0  0  0  0  0  0  0  0  0  0  0  0
   -6.1317    2.5126    0.0000 N   0  0  0  0  0  0  0  0  0  0  0  0
   -5.6682    3.9391    0.0000 C   0  0  0  0  0  0  0  0  0  0  0  0
   -4.2009    4.2510    0.0000 C   0  0  0  0  0  0  0  0  0  0  0  0
   -3.7374    5.6776    0.0000 C   0  0  0  0  0  0  0  0  0  0  0  0
   -4.7411    6.7923    0.0000 C   0  0  0  0  0  0  0  0  0  0  0  0
   -4.2776    8.2189    0.0000 C   0  0  0  0  0  0  0  0  0  0  0  0
   -5.2813    9.3336    0.0000 O   0  0  0  0  0  0  0  0  0  0  0  0
   -2.8104    8.5308    0.0000 N   0  0  0  0  0  0  0  0  0  0  0  0
   -2.3468    9.9574    0.0000 C   0  0  0  0  0  0  0  0  0  0  0  0
   -0.8796   10.2692    0.0000 C   0  0  0  0  0  0  0  0  0  0  0  0
   -0.4161   11.6958    0.0000 C   0  0  0  0  0  0  0  0  0  0  0  0
   -1.4198   12.8105    0.0000 C   0  0  0  0  0  0  0  0  0  0  0  0
   -2.8870   12.4987    0.0000 C   0  0  0  0  0  0  0  0  0  0  0  0
   -3.3505   11.0721    0.0000 C   0  0  0  0  0  0  0  0  0  0  0  0
   -6.2083    6.4805    0.0000 C   0  0  0  0  0  0  0  0  0  0  0  0
   -6.6718    5.0539    0.0000 C   0  0  0  0  0  0  0  0  0  0  0  0
   -0.7500    1.2990    0.0000 C   0  0  0  0  0  0  0  0  0  0  0  0
    0.7500    1.2990    0.0000 C   0  0  0  0  0  0  0  0  0  0  0  0
  1  2  1  0
  2  3  1  0
  3  4  2  0
  4  5  1  0
  5  6  2  0
  6  7  1  0
  7  8  2  0
  7  9  1  0
  9 10  1  0
 10 11  2  0
 11 12  1  0
 12 13  2  0
 13 14  1  0
 14 15  1  0
 15 16  2  0
 16 17  1  0
 17 18  2  0
 18 19  1  0
 19 20  2  0
 19 21  1  0
 21 22  1  0
 22 23  2  0
 23 24  1  0
 24 25  2  0
 25 26  1  0
 26 27  2  0
 18 28  1  0
 28 29  2  0
  6 30  1  0
 30 31  1  0
 31  3  1  0
 14 10  1  0
 29 15  1  0
 27 22  1  0
M  END
>  <Title>  (230) 
idAAIVgen7

$$$$

     RDKit          2D

 45 51  0  0  0  0  0  0  0  0999 V2000
   -2.5242   -4.8694    0.0000 C   0  0  0  0  0  0  0  0  0  0  0  0
   -1.3515   -3.9342    0.0000 C   0  0  0  0  0  0  0  0  0  0  0  0
   -0.0000   -4.5850    0.0000 C   0  0  0  0  0  0  0  0  0  0  0  0
    1.3515   -3.9342    0.0000 C   0  0  0  0  0  0  0  0  0  0  0  0
    1.6852   -2.4718    0.0000 C   0  0  0  0  0  0  0  0  0  0  0  0
    3.1476   -2.1380    0.0000 C   0  0  0  0  0  0  0  0  0  0  0  0
    3.7372   -0.7587    0.0000 N   0  0  0  0  0  0  0  0  0  0  0  0
    5.2311   -0.8932    0.0000 N   0  0  0  0  0  0  0  0  0  0  0  0
    5.5649   -2.3556    0.0000 N   0  0  0  0  0  0  0  0  0  0  0  0
    4.2772   -3.1249    0.0000 N   0  0  0  0  0  0  0  0  0  0  0  0
    4.1428   -4.6189    0.0000 C   0  0  0  0  0  0  0  0  0  0  0  0
    5.2724   -5.6058    0.0000 C   0  0  0  0  0  0  0  0  0  0  0  0
    4.6828   -6.9851    0.0000 C   0  0  0  0  0  0  0  0  0  0  0  0
    3.1889   -6.8506    0.0000 C   0  0  0  0  0  0  0  0  0  0  0  0
    2.2020   -7.9802    0.0000 C   0  0  0  0  0  0  0  0  0  0  0  0
    2.6868   -9.3997    0.0000 O   0  0  0  0  0  0  0  0  0  0  0  0
    0.7303   -7.6903    0.0000 N   0  0  0  0  0  0  0  0  0  0  0  0
   -0.2567   -8.8199    0.0000 C   0  0  0  0  0  0  0  0  0  0  0  0
    0.2282  -10.2394    0.0000 C   0  0  0  0  0  0  0  0  0  0  0  0
   -0.7587  -11.3690    0.0000 C   0  0  0  0  0  0  0  0  0  0  0  0
   -2.2305  -11.0792    0.0000 C   0  0  0  0  0  0  0  0  0  0  0  0
   -3.2174  -12.2088    0.0000 C   0  0  0  0  0  0  0  0  0  0  0  0
   -2.7326  -13.6283    0.0000 C   0  0  0  0  0  0  0  0  0  0  0  0
   -3.7195  -14.7579    0.0000 C   0  0  0  0  0  0  0  0  0  0  0  0
   -5.1912  -14.4680    0.0000 C   0  0  0  0  0  0  0  0  0  0  0  0
   -5.6760  -13.0485    0.0000 C   0  0  0  0  0  0  0  0  0  0  0  0
   -4.6891  -11.9189    0.0000 C   0  0  0  0  0  0  0  0  0  0  0  0
   -2.7153   -9.6597    0.0000 C   0  0  0  0  0  0  0  0  0  0  0  0
   -1.7284   -8.5301    0.0000 C   0  0  0  0  0  0  0  0  0  0  0  0
   -2.2132   -7.1106    0.0000 C   0  0  0  0  0  0  0  0  0  0  0  0
   -3.6849   -6.8207    0.0000 C   0  0  0  0  0  0  0  0  0  0  0  0
   -4.1697   -5.4012    0.0000 C   0  0  0  0  0  0  0  0  0  0  0  0
   -3.1828   -4.2716    0.0000 C   0  0  0  0  0  0  0  0  0  0  0  0
   -1.7111   -4.5615    0.0000 C   0  0  0  0  0  0  0  0  0  0  0  0
   -1.2263   -5.9810    0.0000 C   0  0  0  0  0  0  0  0  0  0  0  0
    2.8551   -5.3882    0.0000 C   0  0  0  0  0  0  0  0  0  0  0  0
    1.4758   -4.7987    0.0000 O   0  0  0  0  0  0  0  0  0  0  0  0
    0.7500   -1.2990    0.0000 C   0  0  0  0  0  0  0  0  0  0  0  0
    1.5000    0.0000    0.0000 C   0  0  0  0  0  0  0  0  0  0  0  0
    0.7500    1.2990    0.0000 C   0  0  0  0  0  0  0  0  0  0  0  0
   -0.7500    1.2990    0.0000 C   0  0  0  0  0  0  0  0  0  0  0  0
   -1.5000    2.5981    0.0000 C   0  0  0  0  0  0  0  0  0  0  0  0
   -1.5000    0.0000    0.0000 C   0  0  0  0  0  0  0  0  0  0  0  0
   -0.7500   -1.2990    0.0000 C   0  0  0  0  0  0  0  0  0  0  0  0
   -1.6852   -2.4718    0.0000 C   0  0  0  0  0  0  0  0  0  0  0  0
  1  2  1  0
  2  3  2  0
  3  4  1  0
  4  5  2  0
  5  6  1  0
  6  7  2  0
  7  8  1  0
  8  9  2  0
  9 10  1  0
 10 11  1  0
 11 12  2  0
 12 13  1  0
 13 14  2  0
 14 15  1  0
 15 16  2  0
 15 17  1  0
 17 18  1  0
 18 19  2  0
 19 20  1  0
 20 21  2  0
 21 22  1  0
 22 23  2  0
 23 24  1  0
 24 25  2  0
 25 26  1  0
 26 27  2  0
 21 28  1  0
 28 29  2  0
 29 30  1  0
 30 31  2  0
 31 32  1  0
 32 33  2  0
 33 34  1  0
 34 35  2  0
 14 36  1  0
 36 37  2  0
  5 38  1  0
 38 39  2  0
 39 40  1  0
 40 41  2  0
 41 42  1  0
 41 43  1  0
 43 44  2  0
 44 45  1  0
 45  2  1  0
 10  6  1  0
 36 11  1  0
 44 38  1  0
 29 18  1  0
 35 30  1  0
 27 22  1  0
M  END
>  <Title>  (231) 
idAAIWgen7

$$$$

     RDKit          2D

 45 51  0  0  0  0  0  0  0  0999 V2000
    8.5683   -1.2295    0.0000 C   0  0  0  0  0  0  0  0  0  0  0  0
    7.5646   -0.1148    0.0000 O   0  0  0  0  0  0  0  0  0  0  0  0
    6.0974   -0.4266    0.0000 C   0  0  0  0  0  0  0  0  0  0  0  0
    4.9826    0.5771    0.0000 C   0  0  0  0  0  0  0  0  0  0  0  0
    3.6836   -0.1729    0.0000 C   0  0  0  0  0  0  0  0  0  0  0  0
    3.9955   -1.6402    0.0000 C   0  0  0  0  0  0  0  0  0  0  0  0
    2.9918   -2.7549    0.0000 C   0  0  0  0  0  0  0  0  0  0  0  0
    3.3037   -4.2221    0.0000 N   0  0  0  0  0  0  0  0  0  0  0  0
    2.0046   -4.9721    0.0000 N   0  0  0  0  0  0  0  0  0  0  0  0
    0.8899   -3.9684    0.0000 N   0  0  0  0  0  0  0  0  0  0  0  0
    1.5000   -2.5981    0.0000 N   0  0  0  0  0  0  0  0  0  0  0  0
    0.7500   -1.2990    0.0000 C   0  0  0  0  0  0  0  0  0  0  0  0
    1.5000    0.0000    0.0000 C   0  0  0  0  0  0  0  0  0  0  0  0
    0.7500    1.2990    0.0000 C   0  0  0  0  0  0  0  0  0  0  0  0
   -0.7500    1.2990    0.0000 C   0  0  0  0  0  0  0  0  0  0  0  0
   -1.5000    2.5981    0.0000 C   0  0  0  0  0  0  0  0  0  0  0  0
   -0.7500    3.8971    0.0000 C   0  0  0  0  0  0  0  0  0  0  0  0
   -1.5000    5.1962    0.0000 C   0  0  0  0  0  0  0  0  0  0  0  0
   -3.0000    5.1962    0.0000 C   0  0  0  0  0  0  0  0  0  0  0  0
   -3.7500    6.4952    0.0000 C   0  0  0  0  0  0  0  0  0  0  0  0
   -3.0000    7.7942    0.0000 C   0  0  0  0  0  0  0  0  0  0  0  0
   -3.7500    9.0933    0.0000 C   0  0  0  0  0  0  0  0  0  0  0  0
   -5.2500    9.0933    0.0000 C   0  0  0  0  0  0  0  0  0  0  0  0
   -6.0000    7.7942    0.0000 C   0  0  0  0  0  0  0  0  0  0  0  0
   -5.2500    6.4952    0.0000 C   0  0  0  0  0  0  0  0  0  0  0  0
   -3.7500    3.8971    0.0000 C   0  0  0  0  0  0  0  0  0  0  0  0
   -3.0000    2.5981    0.0000 C   0  0  0  0  0  0  0  0  0  0  0  0
   -1.5000    0.0000    0.0000 C   0  0  0  0  0  0  0  0  0  0  0  0
   -0.7500   -1.2990    0.0000 C   0  0  0  0  0  0  0  0  0  0  0  0
   -1.5000   -2.5981    0.0000 C   0  0  0  0  0  0  0  0  0  0  0  0
   -0.8899   -3.9684    0.0000 C   0  0  0  0  0  0  0  0  0  0  0  0
   -2.0046   -4.9721    0.0000 C   0  0  0  0  0  0  0  0  0  0  0  0
   -3.3037   -4.2221    0.0000 C   0  0  0  0  0  0  0  0  0  0  0  0
   -4.6740   -4.8322    0.0000 C   0  0  0  0  0  0  0  0  0  0  0  0
   -4.8308   -6.3240    0.0000 O   0  0  0  0  0  0  0  0  0  0  0  0
   -5.8875   -3.9505    0.0000 N   0  0  0  0  0  0  0  0  0  0  0  0
   -7.2578   -4.5606    0.0000 C   0  0  0  0  0  0  0  0  0  0  0  0
   -8.4713   -3.6789    0.0000 C   0  0  0  0  0  0  0  0  0  0  0  0
   -9.8417   -4.2890    0.0000 C   0  0  0  0  0  0  0  0  0  0  0  0
   -9.9984   -5.7808    0.0000 C   0  0  0  0  0  0  0  0  0  0  0  0
   -8.7849   -6.6625    0.0000 C   0  0  0  0  0  0  0  0  0  0  0  0
   -7.4146   -6.0524    0.0000 C   0  0  0  0  0  0  0  0  0  0  0  0
   -2.9918   -2.7549    0.0000 C   0  0  0  0  0  0  0  0  0  0  0  0
   -3.9955   -1.6402    0.0000 O   0  0  0  0  0  0  0  0  0  0  0  0
    5.4873   -1.7969    0.0000 C   0  0  0  0  0  0  0  0  0  0  0  0
  1  2  1  0
  2  3  1  0
  3  4  2  0
  4  5  1  0
  5  6  2  0
  6  7  1  0
  7  8  2  0
  8  9  1  0
  9 10  2  0
 10 11  1  0
 11 12  1  0
 12 13  2  0
 13 14  1  0
 14 15  2  0
 15 16  1  0
 16 17  2  0
 17 18  1  0
 18 19  2  0
 19 20  1  0
 20 21  2  0
 21 22  1  0
 22 23  2  0
 23 24  1  0
 24 25  2  0
 19 26  1  0
 26 27  2  0
 15 28  1  0
 28 29  2  0
 29 30  1  0
 30 31  2  0
 31 32  1  0
 32 33  2  0
 33 34  1  0
 34 35  2  0
 34 36  1  0
 36 37  1  0
 37 38  2  0
 38 39  1  0
 39 40  2  0
 40 41  1  0
 41 42  2  0
 33 43  1  0
 43 44  2  0
  6 45  1  0
 45  3  1  0
 11  7  1  0
 29 12  1  0
 43 30  1  0
 27 16  1  0
 42 37  1  0
 25 20  1  0
M  END
>  <Title>  (232) 
idAAIXgen7

$$$$

     RDKit          2D

 21 23  0  0  0  0  0  0  0  0999 V2000
    3.0000    0.0000    0.0000 C   0  0  0  0  0  0  0  0  0  0  0  0
    1.5000    0.0000    0.0000 C   0  0  0  0  0  0  0  0  0  0  0  0
    0.7500    1.2990    0.0000 C   0  0  0  0  0  0  0  0  0  0  0  0
   -0.7500    1.2990    0.0000 C   0  0  0  0  0  0  0  0  0  0  0  0
   -1.5000    0.0000    0.0000 C   0  0  0  0  0  0  0  0  0  0  0  0
   -3.0000    0.0000    0.0000 C   0  0  0  0  0  0  0  0  0  0  0  0
   -3.8817   -1.2135    0.0000 N   0  0  0  0  0  0  0  0  0  0  0  0
   -5.3083   -0.7500    0.0000 N   0  0  0  0  0  0  0  0  0  0  0  0
   -5.3083    0.7500    0.0000 N   0  0  0  0  0  0  0  0  0  0  0  0
   -3.8817    1.2135    0.0000 N   0  0  0  0  0  0  0  0  0  0  0  0
   -3.4182    2.6401    0.0000 C   0  0  0  0  0  0  0  0  0  0  0  0
   -1.9509    2.9520    0.0000 C   0  0  0  0  0  0  0  0  0  0  0  0
   -1.4874    4.3786    0.0000 C   0  0  0  0  0  0  0  0  0  0  0  0
   -2.4911    5.4933    0.0000 C   0  0  0  0  0  0  0  0  0  0  0  0
   -2.0276    6.9199    0.0000 C   0  0  0  0  0  0  0  0  0  0  0  0
   -3.9583    5.1814    0.0000 C   0  0  0  0  0  0  0  0  0  0  0  0
   -4.9620    6.2961    0.0000 O   0  0  0  0  0  0  0  0  0  0  0  0
   -4.4218    3.7548    0.0000 N   0  0  0  0  0  0  0  0  0  0  0  0
   -0.7500   -1.2990    0.0000 N   0  0  0  0  0  0  0  0  0  0  0  0
   -1.5000   -2.5981    0.0000 C   0  0  0  0  0  0  0  0  0  0  0  0
    0.7500   -1.2990    0.0000 C   0  0  0  0  0  0  0  0  0  0  0  0
  1  2  1  0
  2  3  2  0
  3  4  1  0
  4  5  2  0
  5  6  1  0
  6  7  2  0
  7  8  1  0
  8  9  2  0
  9 10  1  0
 10 11  1  0
 11 12  2  0
 12 13  1  0
 13 14  2  0
 14 15  1  0
 14 16  1  0
 16 17  2  0
 16 18  1  0
  5 19  1  0
 19 20  1  0
 19 21  1  0
 21  2  1  0
 10  6  1  0
 18 11  1  0
M  END
>  <Title>  (233) 
idAAIYgen7

$$$$

     RDKit          2D

 16 16  0  0  0  0  0  0  0  0999 V2000
    6.0000   -2.5981    0.0000 C   0  0  0  0  0  0  0  0  0  0  0  0
    5.2500   -1.2990    0.0000 C   0  0  0  0  0  0  0  0  0  0  0  0
    6.0000    0.0000    0.0000 O   0  0  0  0  0  0  0  0  0  0  0  0
    3.7500   -1.2990    0.0000 N   0  0  0  0  0  0  0  0  0  0  0  0
    3.0000    0.0000    0.0000 C   0  0  0  0  0  0  0  0  0  0  0  0
    3.7500    1.2990    0.0000 O   0  0  0  0  0  0  0  0  0  0  0  0
    1.5000    0.0000    0.0000 C   0  0  0  0  0  0  0  0  0  0  0  0
    0.7500   -1.2990    0.0000 C   0  0  0  0  0  0  0  0  0  0  0  0
   -0.7500   -1.2990    0.0000 C   0  0  0  0  0  0  0  0  0  0  0  0
   -1.5000    0.0000    0.0000 C   0  0  0  0  0  0  0  0  0  0  0  0
   -3.0000    0.0000    0.0000 C   0  0  0  0  0  0  0  0  0  0  0  0
   -3.7500   -1.2990    0.0000 O   0  0  0  0  0  0  0  0  0  0  0  0
   -3.7500    1.2990    0.0000 N   0  0  0  0  0  0  0  0  0  0  0  0
   -5.2500    1.2990    0.0000 O   0  0  0  0  0  0  0  0  0  0  0  0
   -0.7500    1.2990    0.0000 C   0  0  0  0  0  0  0  0  0  0  0  0
    0.7500    1.2990    0.0000 C   0  0  0  0  0  0  0  0  0  0  0  0
  1  2  1  0
  2  3  2  0
  2  4  1  0
  4  5  1  0
  5  6  2  0
  5  7  1  0
  7  8  1  0
  8  9  1  0
  9 10  2  0
 10 11  1  0
 11 12  2  0
 11 13  1  0
 13 14  1  0
 10 15  1  0
 15 16  1  0
 16  7  1  0
M  END
>  <Title>  (234) 
idAAIZgen7

$$$$

     RDKit          2D

 14 14  0  0  0  0  0  0  0  0999 V2000
    6.4598   -2.5981    0.0000 C   0  0  0  0  0  0  0  0  0  0  0  0
    5.7098   -1.2990    0.0000 C   0  0  0  0  0  0  0  0  0  0  0  0
    6.4598    0.0000    0.0000 C   0  0  0  0  0  0  0  0  0  0  0  0
    4.2098   -1.2990    0.0000 C   0  0  0  0  0  0  0  0  0  0  0  0
    3.4598   -0.0000    0.0000 C   0  0  0  0  0  0  0  0  0  0  0  0
    4.2098    1.2990    0.0000 O   0  0  0  0  0  0  0  0  0  0  0  0
    1.9598    0.0000    0.0000 C   0  0  0  0  0  0  0  0  0  0  0  0
    1.3858   -1.3858    0.0000 C   0  0  0  0  0  0  0  0  0  0  0  0
   -0.0000   -1.9598    0.0000 C   0  0  0  0  0  0  0  0  0  0  0  0
   -1.3858   -1.3858    0.0000 C   0  0  0  0  0  0  0  0  0  0  0  0
   -1.9598    0.0000    0.0000 C   0  0  0  0  0  0  0  0  0  0  0  0
   -1.3858    1.3858    0.0000 C   0  0  0  0  0  0  0  0  0  0  0  0
    0.0000    1.9598    0.0000 C   0  0  0  0  0  0  0  0  0  0  0  0
    1.3858    1.3858    0.0000 C   0  0  0  0  0  0  0  0  0  0  0  0
  1  2  1  0
  2  3  1  0
  2  4  1  0
  4  5  1  0
  5  6  1  0
  5  7  1  0
  7  8  1  0
  8  9  1  0
  9 10  1  0
 10 11  1  0
 11 12  1  0
 12 13  1  0
 13 14  1  0
 14  7  1  0
M  END
>  <Title>  (235) 
idAAJAgen7

$$$$

     RDKit          2D

 37 42  0  0  0  0  0  0  0  0999 V2000
    3.7500    1.2990    0.0000 C   0  0  0  0  0  0  0  0  0  0  0  0
    3.0000    0.0000    0.0000 O   0  0  0  0  0  0  0  0  0  0  0  0
    1.5000    0.0000    0.0000 C   0  0  0  0  0  0  0  0  0  0  0  0
    0.7500    1.2990    0.0000 C   0  0  0  0  0  0  0  0  0  0  0  0
   -0.7500    1.2990    0.0000 C   0  0  0  0  0  0  0  0  0  0  0  0
   -1.5000    0.0000    0.0000 C   0  0  0  0  0  0  0  0  0  0  0  0
   -3.0000    0.0000    0.0000 C   0  0  0  0  0  0  0  0  0  0  0  0
   -3.8817   -1.2135    0.0000 N   0  0  0  0  0  0  0  0  0  0  0  0
   -5.3083   -0.7500    0.0000 N   0  0  0  0  0  0  0  0  0  0  0  0
   -5.3083    0.7500    0.0000 N   0  0  0  0  0  0  0  0  0  0  0  0
   -3.8817    1.2135    0.0000 N   0  0  0  0  0  0  0  0  0  0  0  0
   -3.4182    2.6401    0.0000 C   0  0  0  0  0  0  0  0  0  0  0  0
   -4.2998    3.8536    0.0000 C   0  0  0  0  0  0  0  0  0  0  0  0
   -3.4182    5.0672    0.0000 C   0  0  0  0  0  0  0  0  0  0  0  0
   -1.9916    4.6036    0.0000 C   0  0  0  0  0  0  0  0  0  0  0  0
   -0.7780    5.4853    0.0000 C   0  0  0  0  0  0  0  0  0  0  0  0
    0.6485    5.0218    0.0000 N   0  0  0  0  0  0  0  0  0  0  0  0
    1.5302    6.2353    0.0000 N   0  0  0  0  0  0  0  0  0  0  0  0
    0.6485    7.4488    0.0000 N   0  0  0  0  0  0  0  0  0  0  0  0
   -0.7780    6.9853    0.0000 N   0  0  0  0  0  0  0  0  0  0  0  0
   -1.9916    7.8670    0.0000 C   0  0  0  0  0  0  0  0  0  0  0  0
   -3.3619    7.2569    0.0000 C   0  0  0  0  0  0  0  0  0  0  0  0
   -4.5754    8.1386    0.0000 C   0  0  0  0  0  0  0  0  0  0  0  0
   -4.4186    9.6303    0.0000 C   0  0  0  0  0  0  0  0  0  0  0  0
   -5.6321   10.5120    0.0000 C   0  0  0  0  0  0  0  0  0  0  0  0
   -5.4754   12.0038    0.0000 C   0  0  0  0  0  0  0  0  0  0  0  0
   -6.6889   12.8855    0.0000 C   0  0  0  0  0  0  0  0  0  0  0  0
   -8.0592   12.2754    0.0000 C   0  0  0  0  0  0  0  0  0  0  0  0
   -8.2160   10.7836    0.0000 C   0  0  0  0  0  0  0  0  0  0  0  0
   -7.0025    9.9019    0.0000 C   0  0  0  0  0  0  0  0  0  0  0  0
   -3.0483   10.2405    0.0000 C   0  0  0  0  0  0  0  0  0  0  0  0
   -1.8348    9.3588    0.0000 C   0  0  0  0  0  0  0  0  0  0  0  0
   -1.9916    3.1036    0.0000 C   0  0  0  0  0  0  0  0  0  0  0  0
   -0.7780    2.2220    0.0000 O   0  0  0  0  0  0  0  0  0  0  0  0
   -0.7500   -1.2990    0.0000 C   0  0  0  0  0  0  0  0  0  0  0  0
   -1.5000   -2.5981    0.0000 O   0  0  0  0  0  0  0  0  0  0  0  0
    0.7500   -1.2990    0.0000 N   0  0  0  0  0  0  0  0  0  0  0  0
  1  2  1  0
  2  3  1  0
  3  4  2  0
  4  5  1  0
  5  6  2  0
  6  7  1  0
  7  8  2  0
  8  9  1  0
  9 10  2  0
 10 11  1  0
 11 12  1  0
 12 13  2  0
 13 14  1  0
 14 15  2  0
 15 16  1  0
 16 17  2  0
 17 18  1  0
 18 19  2  0
 19 20  1  0
 20 21  1  0
 21 22  2  0
 22 23  1  0
 23 24  2  0
 24 25  1  0
 25 26  2  0
 26 27  1  0
 27 28  2  0
 28 29  1  0
 29 30  2  0
 24 31  1  0
 31 32  1  0
 15 33  1  0
 33 34  2  0
  6 35  1  0
 35 36  2  0
 35 37  1  0
 37  3  1  0
 11  7  1  0
 33 12  1  0
 20 16  1  0
 32 21  1  0
 30 25  1  0
M  END
>  <Title>  (236) 
idAAJBgen7

$$$$

     RDKit          2D

 23 25  0  0  0  0  0  0  0  0999 V2000
    3.0000    0.0000    0.0000 C   0  0  0  0  0  0  0  0  0  0  0  0
    1.5000    0.0000    0.0000 C   0  0  0  0  0  0  0  0  0  0  0  0
    0.7500    1.2990    0.0000 C   0  0  0  0  0  0  0  0  0  0  0  0
   -0.7500    1.2990    0.0000 C   0  0  0  0  0  0  0  0  0  0  0  0
   -1.5000    0.0000    0.0000 C   0  0  0  0  0  0  0  0  0  0  0  0
   -3.0000    0.0000    0.0000 C   0  0  0  0  0  0  0  0  0  0  0  0
   -3.8817   -1.2135    0.0000 N   0  0  0  0  0  0  0  0  0  0  0  0
   -5.3083   -0.7500    0.0000 N   0  0  0  0  0  0  0  0  0  0  0  0
   -5.3083    0.7500    0.0000 N   0  0  0  0  0  0  0  0  0  0  0  0
   -3.8817    1.2135    0.0000 N   0  0  0  0  0  0  0  0  0  0  0  0
   -3.4182    2.6401    0.0000 C   0  0  0  0  0  0  0  0  0  0  0  0
   -1.9509    2.9520    0.0000 C   0  0  0  0  0  0  0  0  0  0  0  0
   -1.4874    4.3786    0.0000 C   0  0  0  0  0  0  0  0  0  0  0  0
   -2.4911    5.4933    0.0000 C   0  0  0  0  0  0  0  0  0  0  0  0
   -2.0276    6.9199    0.0000 C   0  0  0  0  0  0  0  0  0  0  0  0
   -3.0313    8.0346    0.0000 O   0  0  0  0  0  0  0  0  0  0  0  0
   -0.5604    7.2317    0.0000 N   0  0  0  0  0  0  0  0  0  0  0  0
   -0.0968    8.6583    0.0000 O   0  0  0  0  0  0  0  0  0  0  0  0
   -3.9583    5.1814    0.0000 C   0  0  0  0  0  0  0  0  0  0  0  0
   -4.4218    3.7548    0.0000 C   0  0  0  0  0  0  0  0  0  0  0  0
   -0.7500   -1.2990    0.0000 C   0  0  0  0  0  0  0  0  0  0  0  0
   -1.5000   -2.5981    0.0000 O   0  0  0  0  0  0  0  0  0  0  0  0
    0.7500   -1.2990    0.0000 N   0  0  0  0  0  0  0  0  0  0  0  0
  1  2  1  0
  2  3  2  0
  3  4  1  0
  4  5  2  0
  5  6  1  0
  6  7  2  0
  7  8  1  0
  8  9  2  0
  9 10  1  0
 10 11  1  0
 11 12  2  0
 12 13  1  0
 13 14  2  0
 14 15  1  0
 15 16  2  0
 15 17  1  0
 17 18  1  0
 14 19  1  0
 19 20  1  0
  5 21  1  0
 21 22  2  0
 21 23  1  0
 23  2  1  0
 10  6  1  0
 20 11  1  0
M  END
>  <Title>  (237) 
idAAJCgen7

$$$$

     RDKit          2D

 57 65  0  0  0  0  0  0  0  0999 V2000
    3.0000    0.0000    0.0000 C   0  0  0  0  0  0  0  0  0  0  0  0
    1.5000    0.0000    0.0000 C   0  0  0  0  0  0  0  0  0  0  0  0
    0.7500    1.2990    0.0000 C   0  0  0  0  0  0  0  0  0  0  0  0
   -0.7500    1.2990    0.0000 C   0  0  0  0  0  0  0  0  0  0  0  0
   -1.5000    0.0000    0.0000 C   0  0  0  0  0  0  0  0  0  0  0  0
   -3.0000    0.0000    0.0000 C   0  0  0  0  0  0  0  0  0  0  0  0
   -3.8817   -1.2135    0.0000 N   0  0  0  0  0  0  0  0  0  0  0  0
   -5.3083   -0.7500    0.0000 N   0  0  0  0  0  0  0  0  0  0  0  0
   -5.3083    0.7500    0.0000 N   0  0  0  0  0  0  0  0  0  0  0  0
   -3.8817    1.2135    0.0000 N   0  0  0  0  0  0  0  0  0  0  0  0
   -3.4182    2.6401    0.0000 C   0  0  0  0  0  0  0  0  0  0  0  0
   -1.9509    2.9520    0.0000 C   0  0  0  0  0  0  0  0  0  0  0  0
   -1.4874    4.3786    0.0000 C   0  0  0  0  0  0  0  0  0  0  0  0
   -2.4911    5.4933    0.0000 C   0  0  0  0  0  0  0  0  0  0  0  0
   -2.0276    6.9199    0.0000 C   0  0  0  0  0  0  0  0  0  0  0  0
   -3.0313    8.0346    0.0000 O   0  0  0  0  0  0  0  0  0  0  0  0
   -0.5604    7.2317    0.0000 N   0  0  0  0  0  0  0  0  0  0  0  0
   -0.0968    8.6583    0.0000 C   0  0  0  0  0  0  0  0  0  0  0  0
   -0.9785    9.8718    0.0000 N   0  0  0  0  0  0  0  0  0  0  0  0
   -0.0968   11.0854    0.0000 N   0  0  0  0  0  0  0  0  0  0  0  0
    1.3298   10.6218    0.0000 N   0  0  0  0  0  0  0  0  0  0  0  0
    1.3298    9.1218    0.0000 N   0  0  0  0  0  0  0  0  0  0  0  0
    2.5433    8.2402    0.0000 C   0  0  0  0  0  0  0  0  0  0  0  0
    2.3865    6.7484    0.0000 C   0  0  0  0  0  0  0  0  0  0  0  0
    3.6000    5.8667    0.0000 C   0  0  0  0  0  0  0  0  0  0  0  0
    4.9703    6.4768    0.0000 C   0  0  0  0  0  0  0  0  0  0  0  0
    5.1271    7.9686    0.0000 C   0  0  0  0  0  0  0  0  0  0  0  0
    3.9136    8.8503    0.0000 C   0  0  0  0  0  0  0  0  0  0  0  0
   -3.9583    5.1814    0.0000 C   0  0  0  0  0  0  0  0  0  0  0  0
   -4.4218    3.7548    0.0000 C   0  0  0  0  0  0  0  0  0  0  0  0
   -5.8891    3.4430    0.0000 C   0  0  0  0  0  0  0  0  0  0  0  0
   -6.8928    4.5577    0.0000 C   0  0  0  0  0  0  0  0  0  0  0  0
   -8.3600    4.2458    0.0000 C   0  0  0  0  0  0  0  0  0  0  0  0
   -8.8235    2.8192    0.0000 C   0  0  0  0  0  0  0  0  0  0  0  0
  -10.2907    2.5074    0.0000 C   0  0  0  0  0  0  0  0  0  0  0  0
  -11.2944    3.6221    0.0000 C   0  0  0  0  0  0  0  0  0  0  0  0
  -12.7617    3.3102    0.0000 C   0  0  0  0  0  0  0  0  0  0  0  0
  -13.2252    1.8836    0.0000 C   0  0  0  0  0  0  0  0  0  0  0  0
  -14.6924    1.5718    0.0000 C   0  0  0  0  0  0  0  0  0  0  0  0
  -15.6961    2.6865    0.0000 C   0  0  0  0  0  0  0  0  0  0  0  0
  -17.1633    2.3746    0.0000 C   0  0  0  0  0  0  0  0  0  0  0  0
  -17.6268    0.9480    0.0000 C   0  0  0  0  0  0  0  0  0  0  0  0
  -16.6231   -0.1667    0.0000 C   0  0  0  0  0  0  0  0  0  0  0  0
  -15.1559    0.1452    0.0000 C   0  0  0  0  0  0  0  0  0  0  0  0
  -12.2215    0.7689    0.0000 C   0  0  0  0  0  0  0  0  0  0  0  0
  -10.7543    1.0808    0.0000 C   0  0  0  0  0  0  0  0  0  0  0  0
   -9.7506   -0.0339    0.0000 C   0  0  0  0  0  0  0  0  0  0  0  0
  -10.2141   -1.4605    0.0000 C   0  0  0  0  0  0  0  0  0  0  0  0
   -9.2104   -2.5752    0.0000 C   0  0  0  0  0  0  0  0  0  0  0  0
   -7.7432   -2.2634    0.0000 C   0  0  0  0  0  0  0  0  0  0  0  0
   -7.2796   -0.8368    0.0000 C   0  0  0  0  0  0  0  0  0  0  0  0
   -8.2833    0.2779    0.0000 C   0  0  0  0  0  0  0  0  0  0  0  0
   -7.8198    1.7045    0.0000 C   0  0  0  0  0  0  0  0  0  0  0  0
   -6.3526    2.0164    0.0000 C   0  0  0  0  0  0  0  0  0  0  0  0
   -0.7500   -1.2990    0.0000 C   0  0  0  0  0  0  0  0  0  0  0  0
   -1.5000   -2.5981    0.0000 O   0  0  0  0  0  0  0  0  0  0  0  0
    0.7500   -1.2990    0.0000 N   0  0  0  0  0  0  0  0  0  0  0  0
  1  2  1  0
  2  3  2  0
  3  4  1  0
  4  5  2  0
  5  6  1  0
  6  7  2  0
  7  8  1  0
  8  9  2  0
  9 10  1  0
 10 11  1  0
 11 12  2  0
 12 13  1  0
 13 14  2  0
 14 15  1  0
 15 16  2  0
 15 17  1  0
 17 18  1  0
 18 19  2  0
 19 20  1  0
 20 21  2  0
 21 22  1  0
 22 23  1  0
 23 24  2  0
 24 25  1  0
 25 26  2  0
 26 27  1  0
 27 28  2  0
 14 29  1  0
 29 30  2  0
 30 31  1  0
 31 32  2  0
 32 33  1  0
 33 34  2  0
 34 35  1  0
 35 36  2  0
 36 37  1  0
 37 38  2  0
 38 39  1  0
 39 40  2  0
 40 41  1  0
 41 42  2  0
 42 43  1  0
 43 44  2  0
 38 45  1  0
 45 46  2  0
 46 47  1  0
 47 48  2  0
 48 49  1  0
 49 50  2  0
 50 51  1  0
 51 52  2  0
 34 53  1  0
 53 54  2  0
  5 55  1  0
 55 56  2  0
 55 57  1  0
 57  2  1  0
 10  6  1  0
 30 11  1  0
 54 31  1  0
 22 18  1  0
 28 23  1  0
 46 35  1  0
 52 47  1  0
 44 39  1  0
M  END
>  <Title>  (238) 
idAAJDgen7

$$$$

     RDKit          2D

 49 56  0  0  0  0  0  0  0  0999 V2000
    3.0000    0.0000    0.0000 C   0  0  0  0  0  0  0  0  0  0  0  0
    1.5000    0.0000    0.0000 C   0  0  0  0  0  0  0  0  0  0  0  0
    0.7500   -1.2990    0.0000 C   0  0  0  0  0  0  0  0  0  0  0  0
   -0.7500   -1.2990    0.0000 C   0  0  0  0  0  0  0  0  0  0  0  0
   -1.5000    0.0000    0.0000 C   0  0  0  0  0  0  0  0  0  0  0  0
   -3.0000    0.0000    0.0000 C   0  0  0  0  0  0  0  0  0  0  0  0
   -3.7500   -1.2990    0.0000 O   0  0  0  0  0  0  0  0  0  0  0  0
   -3.7500    1.2990    0.0000 N   0  0  0  0  0  0  0  0  0  0  0  0
   -5.2500    1.2990    0.0000 C   0  0  0  0  0  0  0  0  0  0  0  0
   -6.1317    0.0855    0.0000 N   0  0  0  0  0  0  0  0  0  0  0  0
   -7.5583    0.5490    0.0000 N   0  0  0  0  0  0  0  0  0  0  0  0
   -7.5583    2.0490    0.0000 N   0  0  0  0  0  0  0  0  0  0  0  0
   -6.1317    2.5126    0.0000 N   0  0  0  0  0  0  0  0  0  0  0  0
   -5.6682    3.9391    0.0000 C   0  0  0  0  0  0  0  0  0  0  0  0
   -4.2009    4.2510    0.0000 C   0  0  0  0  0  0  0  0  0  0  0  0
   -3.7374    5.6776    0.0000 C   0  0  0  0  0  0  0  0  0  0  0  0
   -4.7411    6.7923    0.0000 C   0  0  0  0  0  0  0  0  0  0  0  0
   -4.2776    8.2189    0.0000 C   0  0  0  0  0  0  0  0  0  0  0  0
   -5.1593    9.4324    0.0000 N   0  0  0  0  0  0  0  0  0  0  0  0
   -4.2776   10.6460    0.0000 N   0  0  0  0  0  0  0  0  0  0  0  0
   -2.8510   10.1824    0.0000 N   0  0  0  0  0  0  0  0  0  0  0  0
   -2.8510    8.6824    0.0000 N   0  0  0  0  0  0  0  0  0  0  0  0
   -1.6375    7.8008    0.0000 C   0  0  0  0  0  0  0  0  0  0  0  0
   -1.7943    6.3090    0.0000 C   0  0  0  0  0  0  0  0  0  0  0  0
   -0.5807    5.4273    0.0000 C   0  0  0  0  0  0  0  0  0  0  0  0
    0.7896    6.0374    0.0000 C   0  0  0  0  0  0  0  0  0  0  0  0
    0.9464    7.5292    0.0000 C   0  0  0  0  0  0  0  0  0  0  0  0
   -0.2671    8.4109    0.0000 C   0  0  0  0  0  0  0  0  0  0  0  0
   -0.1104    9.9026    0.0000 C   0  0  0  0  0  0  0  0  0  0  0  0
   -1.2251   10.9063    0.0000 N   0  0  0  0  0  0  0  0  0  0  0  0
   -0.6150   12.2767    0.0000 N   0  0  0  0  0  0  0  0  0  0  0  0
    0.8768   12.1199    0.0000 N   0  0  0  0  0  0  0  0  0  0  0  0
    1.1887   10.6526    0.0000 N   0  0  0  0  0  0  0  0  0  0  0  0
    2.5590   10.0425    0.0000 C   0  0  0  0  0  0  0  0  0  0  0  0
    2.7158    8.5508    0.0000 C   0  0  0  0  0  0  0  0  0  0  0  0
    4.0861    7.9406    0.0000 C   0  0  0  0  0  0  0  0  0  0  0  0
    5.2996    8.8223    0.0000 C   0  0  0  0  0  0  0  0  0  0  0  0
    6.6700    8.2122    0.0000 C   0  0  0  0  0  0  0  0  0  0  0  0
    6.8267    6.7204    0.0000 C   0  0  0  0  0  0  0  0  0  0  0  0
    8.1971    6.1103    0.0000 C   0  0  0  0  0  0  0  0  0  0  0  0
    9.4106    6.9920    0.0000 C   0  0  0  0  0  0  0  0  0  0  0  0
    9.2538    8.4838    0.0000 C   0  0  0  0  0  0  0  0  0  0  0  0
    7.8835    9.0939    0.0000 C   0  0  0  0  0  0  0  0  0  0  0  0
    5.1428   10.3141    0.0000 C   0  0  0  0  0  0  0  0  0  0  0  0
    3.7725   10.9242    0.0000 C   0  0  0  0  0  0  0  0  0  0  0  0
   -6.2083    6.4805    0.0000 C   0  0  0  0  0  0  0  0  0  0  0  0
   -6.6718    5.0539    0.0000 C   0  0  0  0  0  0  0  0  0  0  0  0
   -0.7500    1.2990    0.0000 C   0  0  0  0  0  0  0  0  0  0  0  0
    0.7500    1.2990    0.0000 C   0  0  0  0  0  0  0  0  0  0  0  0
  1  2  1  0
  2  3  2  0
  3  4  1  0
  4  5  2  0
  5  6  1  0
  6  7  2  0
  6  8  1  0
  8  9  1  0
  9 10  2  0
 10 11  1  0
 11 12  2  0
 12 13  1  0
 13 14  1  0
 14 15  2  0
 15 16  1  0
 16 17  2  0
 17 18  1  0
 18 19  2  0
 19 20  1  0
 20 21  2  0
 21 22  1  0
 22 23  1  0
 23 24  2  0
 24 25  1  0
 25 26  2  0
 26 27  1  0
 27 28  2  0
 28 29  1  0
 29 30  2  0
 30 31  1  0
 31 32  2  0
 32 33  1  0
 33 34  1  0
 34 35  2  0
 35 36  1  0
 36 37  2  0
 37 38  1  0
 38 39  2  0
 39 40  1  0
 40 41  2  0
 41 42  1  0
 42 43  2  0
 37 44  1  0
 44 45  2  0
 17 46  1  0
 46 47  2  0
  5 48  1  0
 48 49  2  0
 49  2  1  0
 13  9  1  0
 47 14  1  0
 22 18  1  0
 28 23  1  0
 33 29  1  0
 45 34  1  0
 43 38  1  0
M  END
>  <Title>  (239) 
idAAJEgen7

$$$$

     RDKit          2D

 28 31  0  0  0  0  0  0  0  0999 V2000
  -10.1624    4.2767    0.0000 C   0  0  0  0  0  0  0  0  0  0  0  0
   -8.9488    3.3950    0.0000 C   0  0  0  0  0  0  0  0  0  0  0  0
   -7.5785    4.0051    0.0000 C   0  0  0  0  0  0  0  0  0  0  0  0
   -6.3650    3.1235    0.0000 C   0  0  0  0  0  0  0  0  0  0  0  0
   -6.5218    1.6317    0.0000 C   0  0  0  0  0  0  0  0  0  0  0  0
   -5.3083    0.7500    0.0000 C   0  0  0  0  0  0  0  0  0  0  0  0
   -5.3083   -0.7500    0.0000 N   0  0  0  0  0  0  0  0  0  0  0  0
   -3.8817   -1.2135    0.0000 N   0  0  0  0  0  0  0  0  0  0  0  0
   -3.0000    0.0000    0.0000 N   0  0  0  0  0  0  0  0  0  0  0  0
   -3.8817    1.2135    0.0000 N   0  0  0  0  0  0  0  0  0  0  0  0
   -3.4182    2.6401    0.0000 C   0  0  0  0  0  0  0  0  0  0  0  0
   -4.2998    3.8536    0.0000 C   0  0  0  0  0  0  0  0  0  0  0  0
   -3.4182    5.0672    0.0000 N   0  0  0  0  0  0  0  0  0  0  0  0
   -1.9916    4.6036    0.0000 N   0  0  0  0  0  0  0  0  0  0  0  0
   -1.9916    3.1036    0.0000 N   0  0  0  0  0  0  0  0  0  0  0  0
   -0.7780    2.2220    0.0000 C   0  0  0  0  0  0  0  0  0  0  0  0
   -0.9348    0.7302    0.0000 C   0  0  0  0  0  0  0  0  0  0  0  0
    0.2787   -0.1515    0.0000 C   0  0  0  0  0  0  0  0  0  0  0  0
    1.6490    0.4586    0.0000 C   0  0  0  0  0  0  0  0  0  0  0  0
    2.8625   -0.4231    0.0000 C   0  0  0  0  0  0  0  0  0  0  0  0
    2.7057   -1.9149    0.0000 O   0  0  0  0  0  0  0  0  0  0  0  0
    4.2329    0.1870    0.0000 N   0  0  0  0  0  0  0  0  0  0  0  0
    5.4464   -0.6946    0.0000 O   0  0  0  0  0  0  0  0  0  0  0  0
    1.8058    1.9504    0.0000 C   0  0  0  0  0  0  0  0  0  0  0  0
    0.5923    2.8321    0.0000 C   0  0  0  0  0  0  0  0  0  0  0  0
   -7.8921    1.0216    0.0000 C   0  0  0  0  0  0  0  0  0  0  0  0
   -8.0489   -0.4702    0.0000 O   0  0  0  0  0  0  0  0  0  0  0  0
   -9.1056    1.9033    0.0000 O   0  0  0  0  0  0  0  0  0  0  0  0
  1  2  1  0
  2  3  2  0
  3  4  1  0
  4  5  2  0
  5  6  1  0
  6  7  2  0
  7  8  1  0
  8  9  2  0
  9 10  1  0
 10 11  1  0
 11 12  2  0
 12 13  1  0
 13 14  2  0
 14 15  1  0
 15 16  1  0
 16 17  2  0
 17 18  1  0
 18 19  2  0
 19 20  1  0
 20 21  2  0
 20 22  1  0
 22 23  1  0
 19 24  1  0
 24 25  1  0
  5 26  1  0
 26 27  2  0
 26 28  1  0
 28  2  1  0
 10  6  1  0
 15 11  1  0
 25 16  1  0
M  END
>  <Title>  (240) 
idAAJFgen7

$$$$

     RDKit          2D

 32 35  0  0  0  0  0  0  0  0999 V2000
    9.2353   -1.6014    0.0000 C   0  0  0  0  0  0  0  0  0  0  0  0
    8.4090   -0.3495    0.0000 C   0  0  0  0  0  0  0  0  0  0  0  0
    6.9117   -0.4392    0.0000 C   0  0  0  0  0  0  0  0  0  0  0  0
    6.0853    0.8127    0.0000 C   0  0  0  0  0  0  0  0  0  0  0  0
    6.7563    2.1542    0.0000 C   0  0  0  0  0  0  0  0  0  0  0  0
    5.9300    3.4061    0.0000 N   0  0  0  0  0  0  0  0  0  0  0  0
    6.4570    4.8104    0.0000 N   0  0  0  0  0  0  0  0  0  0  0  0
    5.2843    5.7457    0.0000 N   0  0  0  0  0  0  0  0  0  0  0  0
    4.0324    4.9193    0.0000 N   0  0  0  0  0  0  0  0  0  0  0  0
    4.4315    3.4734    0.0000 C   0  0  0  0  0  0  0  0  0  0  0  0
    3.4962    2.3006    0.0000 N   0  0  0  0  0  0  0  0  0  0  0  0
    2.0130    2.5242    0.0000 C   0  0  0  0  0  0  0  0  0  0  0  0
    1.4650    3.9205    0.0000 O   0  0  0  0  0  0  0  0  0  0  0  0
    1.0777    1.3515    0.0000 C   0  0  0  0  0  0  0  0  0  0  0  0
    1.7286    0.0000    0.0000 C   0  0  0  0  0  0  0  0  0  0  0  0
    1.0777   -1.3515    0.0000 N   0  0  0  0  0  0  0  0  0  0  0  0
   -0.3846   -1.6852    0.0000 N   0  0  0  0  0  0  0  0  0  0  0  0
   -1.5574   -0.7500    0.0000 C   0  0  0  0  0  0  0  0  0  0  0  0
   -2.9088   -1.4008    0.0000 C   0  0  0  0  0  0  0  0  0  0  0  0
   -3.0209   -2.8966    0.0000 O   0  0  0  0  0  0  0  0  0  0  0  0
   -4.1482   -0.5558    0.0000 N   0  0  0  0  0  0  0  0  0  0  0  0
   -5.4997   -1.2067    0.0000 C   0  0  0  0  0  0  0  0  0  0  0  0
   -6.7390   -0.3617    0.0000 C   0  0  0  0  0  0  0  0  0  0  0  0
   -8.0905   -1.0125    0.0000 C   0  0  0  0  0  0  0  0  0  0  0  0
   -8.2026   -2.5083    0.0000 C   0  0  0  0  0  0  0  0  0  0  0  0
   -6.9632   -3.3533    0.0000 C   0  0  0  0  0  0  0  0  0  0  0  0
   -5.6118   -2.7025    0.0000 C   0  0  0  0  0  0  0  0  0  0  0  0
   -1.5574    0.7500    0.0000 N   0  0  0  0  0  0  0  0  0  0  0  0
   -0.3846    1.6852    0.0000 C   0  0  0  0  0  0  0  0  0  0  0  0
    8.2536    2.2439    0.0000 C   0  0  0  0  0  0  0  0  0  0  0  0
    8.9246    3.5855    0.0000 O   0  0  0  0  0  0  0  0  0  0  0  0
    9.0800    0.9921    0.0000 N   0  0  0  0  0  0  0  0  0  0  0  0
  1  2  1  0
  2  3  2  0
  3  4  1  0
  4  5  2  0
  5  6  1  0
  6  7  1  0
  7  8  2  0
  8  9  1  0
  9 10  2  0
 10 11  1  0
 11 12  1  0
 12 13  2  0
 12 14  1  0
 14 15  1  0
 15 16  2  0
 16 17  1  0
 17 18  2  0
 18 19  1  0
 19 20  2  0
 19 21  1  0
 21 22  1  0
 22 23  2  0
 23 24  1  0
 24 25  2  0
 25 26  1  0
 26 27  2  0
 18 28  1  0
 28 29  1  0
  5 30  1  0
 30 31  2  0
 30 32  1  0
 32  2  1  0
 10  6  1  0
 29 14  1  0
 27 22  1  0
M  END
>  <Title>  (241) 
idAAJGgen7

$$$$

     RDKit          2D

 25 28  0  0  0  0  0  0  0  0999 V2000
   -1.5000    2.5981    0.0000 O   0  0  0  0  0  0  0  0  0  0  0  0
   -0.7500    1.2990    0.0000 C   0  0  0  0  0  0  0  0  0  0  0  0
   -1.5000    0.0000    0.0000 N   0  0  0  0  0  0  0  0  0  0  0  0
   -0.7500   -1.2990    0.0000 C   0  0  0  0  0  0  0  0  0  0  0  0
   -1.5000   -2.5981    0.0000 O   0  0  0  0  0  0  0  0  0  0  0  0
    0.7500   -1.2990    0.0000 C   0  0  0  0  0  0  0  0  0  0  0  0
    1.5000   -0.0000    0.0000 C   0  0  0  0  0  0  0  0  0  0  0  0
    0.7500    1.2990    0.0000 C   0  0  0  0  0  0  0  0  0  0  0  0
    1.5000    2.5981    0.0000 C   0  0  0  0  0  0  0  0  0  0  0  0
    0.8899    3.9684    0.0000 N   0  0  0  0  0  0  0  0  0  0  0  0
    2.0046    4.9721    0.0000 N   0  0  0  0  0  0  0  0  0  0  0  0
    3.3037    4.2221    0.0000 N   0  0  0  0  0  0  0  0  0  0  0  0
    2.9918    2.7549    0.0000 N   0  0  0  0  0  0  0  0  0  0  0  0
    3.9955    1.6402    0.0000 C   0  0  0  0  0  0  0  0  0  0  0  0
    3.5320    0.2136    0.0000 C   0  0  0  0  0  0  0  0  0  0  0  0
    4.5356   -0.9012    0.0000 C   0  0  0  0  0  0  0  0  0  0  0  0
    6.0029   -0.5893    0.0000 C   0  0  0  0  0  0  0  0  0  0  0  0
    7.0066   -1.7040    0.0000 C   0  0  0  0  0  0  0  0  0  0  0  0
    6.5430   -3.1306    0.0000 C   0  0  0  0  0  0  0  0  0  0  0  0
    7.5467   -4.2453    0.0000 C   0  0  0  0  0  0  0  0  0  0  0  0
    9.0140   -3.9334    0.0000 C   0  0  0  0  0  0  0  0  0  0  0  0
    9.4775   -2.5068    0.0000 C   0  0  0  0  0  0  0  0  0  0  0  0
    8.4738   -1.3921    0.0000 C   0  0  0  0  0  0  0  0  0  0  0  0
    6.4664    0.8373    0.0000 C   0  0  0  0  0  0  0  0  0  0  0  0
    5.4627    1.9520    0.0000 C   0  0  0  0  0  0  0  0  0  0  0  0
  1  2  2  0
  2  3  1  0
  3  4  1  0
  4  5  1  0
  4  6  2  0
  6  7  1  0
  7  8  2  0
  8  9  1  0
  9 10  2  0
 10 11  1  0
 11 12  2  0
 12 13  1  0
 13 14  1  0
 14 15  2  0
 15 16  1  0
 16 17  2  0
 17 18  1  0
 18 19  2  0
 19 20  1  0
 20 21  2  0
 21 22  1  0
 22 23  2  0
 17 24  1  0
 24 25  1  0
  8  2  1  0
 13  9  1  0
 25 14  1  0
 23 18  1  0
M  END
>  <Title>  (242) 
idAAJHgen7

$$$$

     RDKit          2D

 22 22  0  0  0  0  0  0  0  0999 V2000
    7.0443   -1.2990    0.0000 O   0  0  0  0  0  0  0  0  0  0  0  0
    6.2943    0.0000    0.0000 C   0  0  0  0  0  0  0  0  0  0  0  0
    4.7943    0.0000    0.0000 C   0  0  0  0  0  0  0  0  0  0  0  0
    4.5597   -1.4815    0.0000 C   0  0  0  0  0  0  0  0  0  0  0  0
    3.8787   -2.8180    0.0000 C   0  0  0  0  0  0  0  0  0  0  0  0
    2.8180   -3.8787    0.0000 C   0  0  0  0  0  0  0  0  0  0  0  0
    1.4815   -4.5597    0.0000 C   0  0  0  0  0  0  0  0  0  0  0  0
   -0.0000   -4.7943    0.0000 C   0  0  0  0  0  0  0  0  0  0  0  0
   -1.4815   -4.5597    0.0000 C   0  0  0  0  0  0  0  0  0  0  0  0
   -2.8180   -3.8787    0.0000 C   0  0  0  0  0  0  0  0  0  0  0  0
   -3.8787   -2.8180    0.0000 C   0  0  0  0  0  0  0  0  0  0  0  0
   -4.5597   -1.4815    0.0000 C   0  0  0  0  0  0  0  0  0  0  0  0
   -4.7943    0.0000    0.0000 C   0  0  0  0  0  0  0  0  0  0  0  0
   -4.5597    1.4815    0.0000 C   0  0  0  0  0  0  0  0  0  0  0  0
   -3.8787    2.8180    0.0000 C   0  0  0  0  0  0  0  0  0  0  0  0
   -2.8180    3.8787    0.0000 C   0  0  0  0  0  0  0  0  0  0  0  0
   -1.4815    4.5597    0.0000 C   0  0  0  0  0  0  0  0  0  0  0  0
    0.0000    4.7943    0.0000 C   0  0  0  0  0  0  0  0  0  0  0  0
    1.4815    4.5597    0.0000 C   0  0  0  0  0  0  0  0  0  0  0  0
    2.8180    3.8787    0.0000 C   0  0  0  0  0  0  0  0  0  0  0  0
    3.8787    2.8180    0.0000 C   0  0  0  0  0  0  0  0  0  0  0  0
    4.5597    1.4815    0.0000 C   0  0  0  0  0  0  0  0  0  0  0  0
  1  2  1  0
  2  3  1  0
  3  4  2  0
  4  5  1  0
  5  6  2  0
  6  7  1  0
  7  8  2  0
  8  9  1  0
  9 10  2  0
 10 11  1  0
 11 12  2  0
 12 13  1  0
 13 14  2  0
 14 15  1  0
 15 16  2  0
 16 17  1  0
 17 18  2  0
 18 19  1  0
 19 20  2  0
 20 21  1  0
 21 22  2  0
 22  3  1  0
M  END
>  <Title>  (243) 
idAAJIgen7

$$$$

     RDKit          2D

 12 12  0  0  0  0  0  0  0  0999 V2000
    4.6771   -1.2990    0.0000 O   0  0  0  0  0  0  0  0  0  0  0  0
    3.9271    0.0000    0.0000 C   0  0  0  0  0  0  0  0  0  0  0  0
    2.4271    0.0000    0.0000 C   0  0  0  0  0  0  0  0  0  0  0  0
    1.9635   -1.4266    0.0000 C   0  0  0  0  0  0  0  0  0  0  0  0
    0.7500   -2.3083    0.0000 C   0  0  0  0  0  0  0  0  0  0  0  0
   -0.7500   -2.3083    0.0000 C   0  0  0  0  0  0  0  0  0  0  0  0
   -1.9635   -1.4266    0.0000 C   0  0  0  0  0  0  0  0  0  0  0  0
   -2.4271    0.0000    0.0000 C   0  0  0  0  0  0  0  0  0  0  0  0
   -1.9635    1.4266    0.0000 C   0  0  0  0  0  0  0  0  0  0  0  0
   -0.7500    2.3083    0.0000 C   0  0  0  0  0  0  0  0  0  0  0  0
    0.7500    2.3083    0.0000 C   0  0  0  0  0  0  0  0  0  0  0  0
    1.9635    1.4266    0.0000 C   0  0  0  0  0  0  0  0  0  0  0  0
  1  2  1  0
  2  3  1  0
  3  4  2  0
  4  5  1  0
  5  6  2  0
  6  7  1  0
  7  8  2  0
  8  9  1  0
  9 10  2  0
 10 11  1  0
 11 12  2  0
 12  3  1  0
M  END
>  <Title>  (244) 
idAAJJgen7

$$$$

     RDKit          2D

 30 33  0  0  0  0  0  0  0  0999 V2000
    3.7500   -1.2990    0.0000 C   0  0  0  0  0  0  0  0  0  0  0  0
    3.0000    0.0000    0.0000 O   0  0  0  0  0  0  0  0  0  0  0  0
    1.5000    0.0000    0.0000 C   0  0  0  0  0  0  0  0  0  0  0  0
    0.7500   -1.2990    0.0000 C   0  0  0  0  0  0  0  0  0  0  0  0
   -0.7500   -1.2990    0.0000 C   0  0  0  0  0  0  0  0  0  0  0  0
   -1.5000    0.0000    0.0000 C   0  0  0  0  0  0  0  0  0  0  0  0
   -3.0000    0.0000    0.0000 C   0  0  0  0  0  0  0  0  0  0  0  0
   -3.7500   -1.2990    0.0000 O   0  0  0  0  0  0  0  0  0  0  0  0
   -3.7500    1.2990    0.0000 N   0  0  0  0  0  0  0  0  0  0  0  0
   -5.2500    1.2990    0.0000 C   0  0  0  0  0  0  0  0  0  0  0  0
   -6.1317    0.0855    0.0000 N   0  0  0  0  0  0  0  0  0  0  0  0
   -7.5583    0.5490    0.0000 N   0  0  0  0  0  0  0  0  0  0  0  0
   -7.5583    2.0490    0.0000 N   0  0  0  0  0  0  0  0  0  0  0  0
   -6.1317    2.5126    0.0000 N   0  0  0  0  0  0  0  0  0  0  0  0
   -5.6682    3.9391    0.0000 C   0  0  0  0  0  0  0  0  0  0  0  0
   -4.2009    4.2510    0.0000 C   0  0  0  0  0  0  0  0  0  0  0  0
   -3.7374    5.6776    0.0000 C   0  0  0  0  0  0  0  0  0  0  0  0
   -4.7411    6.7923    0.0000 C   0  0  0  0  0  0  0  0  0  0  0  0
   -4.2776    8.2189    0.0000 C   0  0  0  0  0  0  0  0  0  0  0  0
   -2.8104    8.5308    0.0000 C   0  0  0  0  0  0  0  0  0  0  0  0
   -2.3468    9.9574    0.0000 C   0  0  0  0  0  0  0  0  0  0  0  0
   -3.3505   11.0721    0.0000 C   0  0  0  0  0  0  0  0  0  0  0  0
   -4.8177   10.7602    0.0000 C   0  0  0  0  0  0  0  0  0  0  0  0
   -5.2813    9.3336    0.0000 C   0  0  0  0  0  0  0  0  0  0  0  0
   -6.2083    6.4805    0.0000 C   0  0  0  0  0  0  0  0  0  0  0  0
   -6.6718    5.0539    0.0000 C   0  0  0  0  0  0  0  0  0  0  0  0
   -8.1391    4.7420    0.0000 O   0  0  0  0  0  0  0  0  0  0  0  0
   -0.7500    1.2990    0.0000 N   0  0  0  0  0  0  0  0  0  0  0  0
    0.7500    1.2990    0.0000 C   0  0  0  0  0  0  0  0  0  0  0  0
    1.5000    2.5981    0.0000 O   0  0  0  0  0  0  0  0  0  0  0  0
  1  2  1  0
  2  3  1  0
  3  4  2  0
  4  5  1  0
  5  6  2  0
  6  7  1  0
  7  8  2  0
  7  9  1  0
  9 10  1  0
 10 11  2  0
 11 12  1  0
 12 13  2  0
 13 14  1  0
 14 15  1  0
 15 16  2  0
 16 17  1  0
 17 18  2  0
 18 19  1  0
 19 20  2  0
 20 21  1  0
 21 22  2  0
 22 23  1  0
 23 24  2  0
 18 25  1  0
 25 26  2  0
 26 27  1  0
  6 28  1  0
 28 29  1  0
 29 30  2  0
 29  3  1  0
 14 10  1  0
 26 15  1  0
 24 19  1  0
M  END
>  <Title>  (245) 
idAAJKgen7

$$$$

     RDKit          2D

 19 19  0  0  0  0  0  0  0  0999 V2000
    5.3444    0.0000    0.0000 C   0  0  0  0  0  0  0  0  0  0  0  0
    3.8444    0.0000    0.0000 C   0  0  0  0  0  0  0  0  0  0  0  0
    3.5517   -1.4712    0.0000 C   0  0  0  0  0  0  0  0  0  0  0  0
    2.7184   -2.7184    0.0000 C   0  0  0  0  0  0  0  0  0  0  0  0
    1.4712   -3.5517    0.0000 C   0  0  0  0  0  0  0  0  0  0  0  0
   -0.0000   -3.8444    0.0000 C   0  0  0  0  0  0  0  0  0  0  0  0
   -1.4712   -3.5517    0.0000 C   0  0  0  0  0  0  0  0  0  0  0  0
   -2.7184   -2.7184    0.0000 C   0  0  0  0  0  0  0  0  0  0  0  0
   -3.5517   -1.4712    0.0000 C   0  0  0  0  0  0  0  0  0  0  0  0
   -3.8444    0.0000    0.0000 C   0  0  0  0  0  0  0  0  0  0  0  0
   -3.5517    1.4712    0.0000 C   0  0  0  0  0  0  0  0  0  0  0  0
   -2.7184    2.7184    0.0000 C   0  0  0  0  0  0  0  0  0  0  0  0
   -1.4712    3.5517    0.0000 C   0  0  0  0  0  0  0  0  0  0  0  0
    0.0000    3.8444    0.0000 C   0  0  0  0  0  0  0  0  0  0  0  0
    1.4712    3.5517    0.0000 C   0  0  0  0  0  0  0  0  0  0  0  0
    2.0452    4.9376    0.0000 C   0  0  0  0  0  0  0  0  0  0  0  0
    2.7184    2.7184    0.0000 C   0  0  0  0  0  0  0  0  0  0  0  0
    3.7790    3.7790    0.0000 O   0  0  0  0  0  0  0  0  0  0  0  0
    3.5517    1.4712    0.0000 N   0  0  0  0  0  0  0  0  0  0  0  0
  1  2  1  0
  2  3  2  0
  3  4  1  0
  4  5  2  0
  5  6  1  0
  6  7  2  0
  7  8  1  0
  8  9  2  0
  9 10  1  0
 10 11  2  0
 11 12  1  0
 12 13  2  0
 13 14  1  0
 14 15  2  0
 15 16  1  0
 15 17  1  0
 17 18  2  0
 17 19  1  0
 19  2  1  0
M  END
>  <Title>  (246) 
idAAJLgen7

$$$$

     RDKit          2D

 40 46  0  0  0  0  0  0  0  0999 V2000
   -5.6321   10.5120    0.0000 C   0  0  0  0  0  0  0  0  0  0  0  0
   -4.4186    9.6303    0.0000 C   0  0  0  0  0  0  0  0  0  0  0  0
   -3.0483   10.2405    0.0000 C   0  0  0  0  0  0  0  0  0  0  0  0
   -1.8348    9.3588    0.0000 C   0  0  0  0  0  0  0  0  0  0  0  0
   -1.9916    7.8670    0.0000 C   0  0  0  0  0  0  0  0  0  0  0  0
   -0.7780    6.9853    0.0000 C   0  0  0  0  0  0  0  0  0  0  0  0
    0.6485    7.4488    0.0000 N   0  0  0  0  0  0  0  0  0  0  0  0
    1.5302    6.2353    0.0000 N   0  0  0  0  0  0  0  0  0  0  0  0
    0.6485    5.0218    0.0000 N   0  0  0  0  0  0  0  0  0  0  0  0
   -0.7780    5.4853    0.0000 N   0  0  0  0  0  0  0  0  0  0  0  0
   -1.9916    4.6036    0.0000 C   0  0  0  0  0  0  0  0  0  0  0  0
   -3.4182    5.0672    0.0000 C   0  0  0  0  0  0  0  0  0  0  0  0
   -4.2998    3.8536    0.0000 N   0  0  0  0  0  0  0  0  0  0  0  0
   -3.4182    2.6401    0.0000 N   0  0  0  0  0  0  0  0  0  0  0  0
   -1.9916    3.1036    0.0000 N   0  0  0  0  0  0  0  0  0  0  0  0
   -0.7780    2.2220    0.0000 C   0  0  0  0  0  0  0  0  0  0  0  0
   -0.9348    0.7302    0.0000 C   0  0  0  0  0  0  0  0  0  0  0  0
    0.2787   -0.1515    0.0000 C   0  0  0  0  0  0  0  0  0  0  0  0
    1.6490    0.4586    0.0000 C   0  0  0  0  0  0  0  0  0  0  0  0
    2.8625   -0.4231    0.0000 C   0  0  0  0  0  0  0  0  0  0  0  0
    4.2891    0.0404    0.0000 N   0  0  0  0  0  0  0  0  0  0  0  0
    5.1708   -1.1731    0.0000 N   0  0  0  0  0  0  0  0  0  0  0  0
    4.2891   -2.3866    0.0000 N   0  0  0  0  0  0  0  0  0  0  0  0
    2.8625   -1.9231    0.0000 N   0  0  0  0  0  0  0  0  0  0  0  0
    1.6490   -2.8048    0.0000 C   0  0  0  0  0  0  0  0  0  0  0  0
    0.2787   -2.1946    0.0000 C   0  0  0  0  0  0  0  0  0  0  0  0
   -0.9348   -3.0763    0.0000 C   0  0  0  0  0  0  0  0  0  0  0  0
   -0.7780   -4.5681    0.0000 C   0  0  0  0  0  0  0  0  0  0  0  0
   -1.9916   -5.4498    0.0000 C   0  0  0  0  0  0  0  0  0  0  0  0
   -3.3619   -4.8397    0.0000 C   0  0  0  0  0  0  0  0  0  0  0  0
   -4.5754   -5.7214    0.0000 C   0  0  0  0  0  0  0  0  0  0  0  0
   -4.4186   -7.2131    0.0000 C   0  0  0  0  0  0  0  0  0  0  0  0
   -3.0483   -7.8232    0.0000 C   0  0  0  0  0  0  0  0  0  0  0  0
   -1.8348   -6.9416    0.0000 C   0  0  0  0  0  0  0  0  0  0  0  0
    0.5923   -5.1782    0.0000 C   0  0  0  0  0  0  0  0  0  0  0  0
    1.8058   -4.2965    0.0000 C   0  0  0  0  0  0  0  0  0  0  0  0
    1.8058    1.9504    0.0000 C   0  0  0  0  0  0  0  0  0  0  0  0
    0.5923    2.8321    0.0000 C   0  0  0  0  0  0  0  0  0  0  0  0
   -3.3619    7.2569    0.0000 C   0  0  0  0  0  0  0  0  0  0  0  0
   -4.5754    8.1386    0.0000 C   0  0  0  0  0  0  0  0  0  0  0  0
  1  2  1  0
  2  3  2  0
  3  4  1  0
  4  5  2  0
  5  6  1  0
  6  7  2  0
  7  8  1  0
  8  9  2  0
  9 10  1  0
 10 11  1  0
 11 12  2  0
 12 13  1  0
 13 14  2  0
 14 15  1  0
 15 16  1  0
 16 17  2  0
 17 18  1  0
 18 19  2  0
 19 20  1  0
 20 21  2  0
 21 22  1  0
 22 23  2  0
 23 24  1  0
 24 25  1  0
 25 26  2  0
 26 27  1  0
 27 28  2  0
 28 29  1  0
 29 30  2  0
 30 31  1  0
 31 32  2  0
 32 33  1  0
 33 34  2  0
 28 35  1  0
 35 36  2  0
 19 37  1  0
 37 38  2  0
  5 39  1  0
 39 40  2  0
 40  2  1  0
 10  6  1  0
 15 11  1  0
 38 16  1  0
 24 20  1  0
 36 25  1  0
 34 29  1  0
M  END
>  <Title>  (247) 
idAAJMgen7

$$$$

     RDKit          2D

 13 14  0  0  0  0  0  0  0  0999 V2000
   -0.5773   -4.2803    0.0000 N   0  0  0  0  0  0  0  0  0  0  0  0
    0.8899   -3.9684    0.0000 C   0  0  0  0  0  0  0  0  0  0  0  0
    2.0046   -4.9721    0.0000 N   0  0  0  0  0  0  0  0  0  0  0  0
    3.3037   -4.2221    0.0000 N   0  0  0  0  0  0  0  0  0  0  0  0
    2.9918   -2.7549    0.0000 N   0  0  0  0  0  0  0  0  0  0  0  0
    1.5000   -2.5981    0.0000 N   0  0  0  0  0  0  0  0  0  0  0  0
    0.7500   -1.2990    0.0000 C   0  0  0  0  0  0  0  0  0  0  0  0
    1.5000    0.0000    0.0000 C   0  0  0  0  0  0  0  0  0  0  0  0
    0.7500    1.2990    0.0000 C   0  0  0  0  0  0  0  0  0  0  0  0
   -0.7500    1.2990    0.0000 C   0  0  0  0  0  0  0  0  0  0  0  0
   -1.5000    2.5981    0.0000 O   0  0  0  0  0  0  0  0  0  0  0  0
   -1.5000    0.0000    0.0000 N   0  0  0  0  0  0  0  0  0  0  0  0
   -0.7500   -1.2990    0.0000 N   0  0  0  0  0  0  0  0  0  0  0  0
  1  2  1  0
  2  3  2  0
  3  4  1  0
  4  5  2  0
  5  6  1  0
  6  7  1  0
  7  8  2  0
  8  9  1  0
  9 10  2  0
 10 11  1  0
 10 12  1  0
 12 13  2  0
  6  2  1  0
 13  7  1  0
M  END
>  <Title>  (248) 
idAAJNgen7

$$$$

     RDKit          2D

 42 46  0  0  0  0  0  0  0  0999 V2000
    5.2500   -1.2990    0.0000 C   0  0  0  0  0  0  0  0  0  0  0  0
    3.7500   -1.2990    0.0000 C   0  0  0  0  0  0  0  0  0  0  0  0
    3.0000   -2.5981    0.0000 O   0  0  0  0  0  0  0  0  0  0  0  0
    3.0000    0.0000    0.0000 O   0  0  0  0  0  0  0  0  0  0  0  0
    1.5000    0.0000    0.0000 C   0  0  0  0  0  0  0  0  0  0  0  0
    0.7500   -1.2990    0.0000 C   0  0  0  0  0  0  0  0  0  0  0  0
   -0.7500   -1.2990    0.0000 C   0  0  0  0  0  0  0  0  0  0  0  0
   -1.5000    0.0000    0.0000 C   0  0  0  0  0  0  0  0  0  0  0  0
   -3.0000    0.0000    0.0000 N   0  0  0  0  0  0  0  0  0  0  0  0
   -3.7500    1.2990    0.0000 C   0  0  0  0  0  0  0  0  0  0  0  0
   -3.0000    2.5981    0.0000 O   0  0  0  0  0  0  0  0  0  0  0  0
   -5.2500    1.2990    0.0000 C   0  0  0  0  0  0  0  0  0  0  0  0
   -6.0000    2.5981    0.0000 C   0  0  0  0  0  0  0  0  0  0  0  0
   -7.5000    2.5981    0.0000 C   0  0  0  0  0  0  0  0  0  0  0  0
   -8.2500    1.2990    0.0000 C   0  0  0  0  0  0  0  0  0  0  0  0
   -9.7500    1.2990    0.0000 C   0  0  0  0  0  0  0  0  0  0  0  0
  -10.5000    2.5981    0.0000 C   0  0  0  0  0  0  0  0  0  0  0  0
  -12.0000    2.5981    0.0000 C   0  0  0  0  0  0  0  0  0  0  0  0
  -12.7500    1.2990    0.0000 C   0  0  0  0  0  0  0  0  0  0  0  0
  -12.0000    0.0000    0.0000 C   0  0  0  0  0  0  0  0  0  0  0  0
  -10.5000    0.0000    0.0000 C   0  0  0  0  0  0  0  0  0  0  0  0
   -7.5000    0.0000    0.0000 C   0  0  0  0  0  0  0  0  0  0  0  0
   -6.0000    0.0000    0.0000 C   0  0  0  0  0  0  0  0  0  0  0  0
   -5.2500   -1.2990    0.0000 C   0  0  0  0  0  0  0  0  0  0  0  0
   -3.7500   -1.2990    0.0000 C   0  0  0  0  0  0  0  0  0  0  0  0
   -3.0000   -2.5981    0.0000 N   0  0  0  0  0  0  0  0  0  0  0  0
   -3.7500   -3.8971    0.0000 N   0  0  0  0  0  0  0  0  0  0  0  0
   -5.2500   -3.8971    0.0000 N   0  0  0  0  0  0  0  0  0  0  0  0
   -6.0000   -2.5981    0.0000 N   0  0  0  0  0  0  0  0  0  0  0  0
   -7.5000   -2.5981    0.0000 C   0  0  0  0  0  0  0  0  0  0  0  0
   -8.2500   -1.2990    0.0000 C   0  0  0  0  0  0  0  0  0  0  0  0
   -9.7500   -1.2990    0.0000 C   0  0  0  0  0  0  0  0  0  0  0  0
  -10.5000   -2.5981    0.0000 C   0  0  0  0  0  0  0  0  0  0  0  0
  -12.0000   -2.5981    0.0000 C   0  0  0  0  0  0  0  0  0  0  0  0
  -12.7500   -1.2990    0.0000 O   0  0  0  0  0  0  0  0  0  0  0  0
  -12.7500   -3.8971    0.0000 N   0  0  0  0  0  0  0  0  0  0  0  0
  -14.2500   -3.8971    0.0000 O   0  0  0  0  0  0  0  0  0  0  0  0
   -9.7500   -3.8971    0.0000 C   0  0  0  0  0  0  0  0  0  0  0  0
  -10.5000   -5.1962    0.0000 C   0  0  0  0  0  0  0  0  0  0  0  0
   -8.2500   -3.8971    0.0000 C   0  0  0  0  0  0  0  0  0  0  0  0
   -0.7500    1.2990    0.0000 C   0  0  0  0  0  0  0  0  0  0  0  0
    0.7500    1.2990    0.0000 C   0  0  0  0  0  0  0  0  0  0  0  0
  1  2  1  0
  2  3  2  0
  2  4  1  0
  4  5  1  0
  5  6  2  0
  6  7  1  0
  7  8  2  0
  8  9  1  0
  9 10  1  0
 10 11  2  0
 10 12  1  0
 12 13  1  0
 13 14  1  0
 14 15  2  0
 15 16  1  0
 16 17  2  0
 17 18  1  0
 18 19  2  0
 19 20  1  0
 20 21  2  0
 15 22  1  0
 22 23  2  0
 23 24  1  0
 24 25  1  0
 25 26  2  0
 26 27  1  0
 27 28  2  0
 28 29  1  0
 29 30  1  0
 30 31  2  0
 31 32  1  0
 32 33  2  0
 33 34  1  0
 34 35  2  0
 34 36  1  0
 36 37  1  0
 33 38  1  0
 38 39  1  0
 38 40  2  0
  8 41  1  0
 41 42  2  0
 42  5  1  0
 23 12  1  0
 29 24  1  0
 40 30  1  0
 21 16  1  0
M  END
>  <Title>  (249) 
idAAJOgen7

$$$$

     RDKit          2D

 27 29  0  0  0  0  0  0  0  0999 V2000
    3.0000    0.0000    0.0000 C   0  0  0  0  0  0  0  0  0  0  0  0
    1.5000    0.0000    0.0000 C   0  0  0  0  0  0  0  0  0  0  0  0
    0.7500   -1.2990    0.0000 C   0  0  0  0  0  0  0  0  0  0  0  0
   -0.7500   -1.2990    0.0000 C   0  0  0  0  0  0  0  0  0  0  0  0
   -1.5000    0.0000    0.0000 C   0  0  0  0  0  0  0  0  0  0  0  0
   -3.0000    0.0000    0.0000 N   0  0  0  0  0  0  0  0  0  0  0  0
   -3.7500    1.2990    0.0000 C   0  0  0  0  0  0  0  0  0  0  0  0
   -3.0000    2.5981    0.0000 O   0  0  0  0  0  0  0  0  0  0  0  0
   -5.2500    1.2990    0.0000 C   0  0  0  0  0  0  0  0  0  0  0  0
   -6.1317    0.0855    0.0000 N   0  0  0  0  0  0  0  0  0  0  0  0
   -7.5583    0.5490    0.0000 N   0  0  0  0  0  0  0  0  0  0  0  0
   -7.5583    2.0490    0.0000 N   0  0  0  0  0  0  0  0  0  0  0  0
   -6.1317    2.5126    0.0000 N   0  0  0  0  0  0  0  0  0  0  0  0
   -5.6682    3.9391    0.0000 C   0  0  0  0  0  0  0  0  0  0  0  0
   -4.2009    4.2510    0.0000 C   0  0  0  0  0  0  0  0  0  0  0  0
   -3.7374    5.6776    0.0000 C   0  0  0  0  0  0  0  0  0  0  0  0
   -4.7411    6.7923    0.0000 C   0  0  0  0  0  0  0  0  0  0  0  0
   -4.2776    8.2189    0.0000 C   0  0  0  0  0  0  0  0  0  0  0  0
   -5.2813    9.3336    0.0000 O   0  0  0  0  0  0  0  0  0  0  0  0
   -2.8104    8.5308    0.0000 N   0  0  0  0  0  0  0  0  0  0  0  0
   -2.3468    9.9574    0.0000 O   0  0  0  0  0  0  0  0  0  0  0  0
   -6.2083    6.4805    0.0000 N   0  0  0  0  0  0  0  0  0  0  0  0
   -6.6718    5.0539    0.0000 C   0  0  0  0  0  0  0  0  0  0  0  0
   -8.1391    4.7420    0.0000 O   0  0  0  0  0  0  0  0  0  0  0  0
   -0.7500    1.2990    0.0000 C   0  0  0  0  0  0  0  0  0  0  0  0
   -1.5000    2.5981    0.0000 O   0  0  0  0  0  0  0  0  0  0  0  0
    0.7500    1.2990    0.0000 N   0  0  0  0  0  0  0  0  0  0  0  0
  1  2  1  0
  2  3  2  0
  3  4  1  0
  4  5  2  0
  5  6  1  0
  6  7  1  0
  7  8  2  0
  7  9  1  0
  9 10  2  0
 10 11  1  0
 11 12  2  0
 12 13  1  0
 13 14  1  0
 14 15  2  0
 15 16  1  0
 16 17  2  0
 17 18  1  0
 18 19  2  0
 18 20  1  0
 20 21  1  0
 17 22  1  0
 22 23  1  0
 23 24  2  0
  5 25  1  0
 25 26  2  0
 25 27  1  0
 27  2  1  0
 13  9  1  0
 23 14  1  0
M  END
>  <Title>  (250) 
idAAJPgen7

$$$$

     RDKit          2D

 15 16  0  0  0  0  0  0  0  0999 V2000
    3.0000    0.0000    0.0000 O   0  0  0  0  0  0  0  0  0  0  0  0
    1.5000    0.0000    0.0000 C   0  0  0  0  0  0  0  0  0  0  0  0
    0.7500   -1.2990    0.0000 C   0  0  0  0  0  0  0  0  0  0  0  0
   -0.7500   -1.2990    0.0000 C   0  0  0  0  0  0  0  0  0  0  0  0
   -1.5000    0.0000    0.0000 C   0  0  0  0  0  0  0  0  0  0  0  0
   -3.0000    0.0000    0.0000 C   0  0  0  0  0  0  0  0  0  0  0  0
   -3.7500    1.2990    0.0000 C   0  0  0  0  0  0  0  0  0  0  0  0
   -5.2500    1.2990    0.0000 C   0  0  0  0  0  0  0  0  0  0  0  0
   -6.0000    2.5981    0.0000 C   0  0  0  0  0  0  0  0  0  0  0  0
   -7.5000    2.5981    0.0000 C   0  0  0  0  0  0  0  0  0  0  0  0
   -8.2500    1.2990    0.0000 C   0  0  0  0  0  0  0  0  0  0  0  0
   -7.5000    0.0000    0.0000 C   0  0  0  0  0  0  0  0  0  0  0  0
   -6.0000    0.0000    0.0000 C   0  0  0  0  0  0  0  0  0  0  0  0
   -0.7500    1.2990    0.0000 C   0  0  0  0  0  0  0  0  0  0  0  0
    0.7500    1.2990    0.0000 C   0  0  0  0  0  0  0  0  0  0  0  0
  1  2  1  0
  2  3  2  0
  3  4  1  0
  4  5  2  0
  5  6  1  0
  6  7  1  0
  7  8  1  0
  8  9  2  0
  9 10  1  0
 10 11  2  0
 11 12  1  0
 12 13  2  0
  5 14  1  0
 14 15  2  0
 15  2  1  0
 13  8  1  0
M  END
>  <Title>  (251) 
idAAJQgen7

$$$$

     RDKit          2D

 34 38  0  0  0  0  0  0  0  0999 V2000
    3.0000    0.0000    0.0000 C   0  0  0  0  0  0  0  0  0  0  0  0
    1.5000    0.0000    0.0000 C   0  0  0  0  0  0  0  0  0  0  0  0
    0.7500    1.2990    0.0000 C   0  0  0  0  0  0  0  0  0  0  0  0
   -0.7500    1.2990    0.0000 C   0  0  0  0  0  0  0  0  0  0  0  0
   -1.5000    0.0000    0.0000 C   0  0  0  0  0  0  0  0  0  0  0  0
   -3.0000    0.0000    0.0000 C   0  0  0  0  0  0  0  0  0  0  0  0
   -3.8817   -1.2135    0.0000 N   0  0  0  0  0  0  0  0  0  0  0  0
   -5.3083   -0.7500    0.0000 N   0  0  0  0  0  0  0  0  0  0  0  0
   -5.3083    0.7500    0.0000 N   0  0  0  0  0  0  0  0  0  0  0  0
   -3.8817    1.2135    0.0000 N   0  0  0  0  0  0  0  0  0  0  0  0
   -3.4182    2.6401    0.0000 C   0  0  0  0  0  0  0  0  0  0  0  0
   -1.9509    2.9520    0.0000 C   0  0  0  0  0  0  0  0  0  0  0  0
   -1.4874    4.3786    0.0000 C   0  0  0  0  0  0  0  0  0  0  0  0
   -2.4911    5.4933    0.0000 C   0  0  0  0  0  0  0  0  0  0  0  0
   -2.0276    6.9199    0.0000 C   0  0  0  0  0  0  0  0  0  0  0  0
   -3.0313    8.0346    0.0000 O   0  0  0  0  0  0  0  0  0  0  0  0
   -0.5604    7.2317    0.0000 N   0  0  0  0  0  0  0  0  0  0  0  0
   -0.0968    8.6583    0.0000 C   0  0  0  0  0  0  0  0  0  0  0  0
   -0.9785    9.8718    0.0000 N   0  0  0  0  0  0  0  0  0  0  0  0
   -0.0968   11.0854    0.0000 N   0  0  0  0  0  0  0  0  0  0  0  0
    1.3298   10.6218    0.0000 N   0  0  0  0  0  0  0  0  0  0  0  0
    1.3298    9.1218    0.0000 N   0  0  0  0  0  0  0  0  0  0  0  0
    2.5433    8.2402    0.0000 C   0  0  0  0  0  0  0  0  0  0  0  0
    2.3865    6.7484    0.0000 C   0  0  0  0  0  0  0  0  0  0  0  0
    3.6000    5.8667    0.0000 C   0  0  0  0  0  0  0  0  0  0  0  0
    4.9703    6.4768    0.0000 C   0  0  0  0  0  0  0  0  0  0  0  0
    5.1271    7.9686    0.0000 C   0  0  0  0  0  0  0  0  0  0  0  0
    3.9136    8.8503    0.0000 C   0  0  0  0  0  0  0  0  0  0  0  0
   -3.9583    5.1814    0.0000 C   0  0  0  0  0  0  0  0  0  0  0  0
   -4.9620    6.2961    0.0000 O   0  0  0  0  0  0  0  0  0  0  0  0
   -4.4218    3.7548    0.0000 N   0  0  0  0  0  0  0  0  0  0  0  0
   -0.7500   -1.2990    0.0000 C   0  0  0  0  0  0  0  0  0  0  0  0
   -1.5000   -2.5981    0.0000 O   0  0  0  0  0  0  0  0  0  0  0  0
    0.7500   -1.2990    0.0000 N   0  0  0  0  0  0  0  0  0  0  0  0
  1  2  1  0
  2  3  2  0
  3  4  1  0
  4  5  2  0
  5  6  1  0
  6  7  2  0
  7  8  1  0
  8  9  2  0
  9 10  1  0
 10 11  1  0
 11 12  2  0
 12 13  1  0
 13 14  2  0
 14 15  1  0
 15 16  2  0
 15 17  1  0
 17 18  1  0
 18 19  2  0
 19 20  1  0
 20 21  2  0
 21 22  1  0
 22 23  1  0
 23 24  2  0
 24 25  1  0
 25 26  2  0
 26 27  1  0
 27 28  2  0
 14 29  1  0
 29 30  2  0
 29 31  1  0
  5 32  1  0
 32 33  2  0
 32 34  1  0
 34  2  1  0
 10  6  1  0
 31 11  1  0
 22 18  1  0
 28 23  1  0
M  END
>  <Title>  (252) 
idAAJRgen7

$$$$

     RDKit          2D

 41 44  0  0  0  0  0  0  0  0999 V2000
    5.6205   -1.2990    0.0000 C   0  0  0  0  0  0  0  0  0  0  0  0
    4.8705    0.0000    0.0000 O   0  0  0  0  0  0  0  0  0  0  0  0
    3.3705    0.0000    0.0000 C   0  0  0  0  0  0  0  0  0  0  0  0
    3.0367   -1.4624    0.0000 C   0  0  0  0  0  0  0  0  0  0  0  0
    2.1015   -2.6351    0.0000 C   0  0  0  0  0  0  0  0  0  0  0  0
    0.7500   -3.2860    0.0000 C   0  0  0  0  0  0  0  0  0  0  0  0
   -0.7500   -3.2860    0.0000 C   0  0  0  0  0  0  0  0  0  0  0  0
   -2.1015   -2.6351    0.0000 C   0  0  0  0  0  0  0  0  0  0  0  0
   -3.0367   -1.4624    0.0000 C   0  0  0  0  0  0  0  0  0  0  0  0
   -3.3705    0.0000    0.0000 C   0  0  0  0  0  0  0  0  0  0  0  0
   -3.0367    1.4624    0.0000 C   0  0  0  0  0  0  0  0  0  0  0  0
   -2.1015    2.6351    0.0000 C   0  0  0  0  0  0  0  0  0  0  0  0
   -0.7500    3.2860    0.0000 C   0  0  0  0  0  0  0  0  0  0  0  0
    0.7500    3.2860    0.0000 C   0  0  0  0  0  0  0  0  0  0  0  0
    1.0838    4.7484    0.0000 C   0  0  0  0  0  0  0  0  0  0  0  0
   -0.0158    5.7686    0.0000 O   0  0  0  0  0  0  0  0  0  0  0  0
    2.5171    5.1905    0.0000 N   0  0  0  0  0  0  0  0  0  0  0  0
    2.8509    6.6529    0.0000 C   0  0  0  0  0  0  0  0  0  0  0  0
    1.8640    7.7825    0.0000 N   0  0  0  0  0  0  0  0  0  0  0  0
    2.6334    9.0702    0.0000 N   0  0  0  0  0  0  0  0  0  0  0  0
    4.0958    8.7364    0.0000 N   0  0  0  0  0  0  0  0  0  0  0  0
    4.2302    7.2424    0.0000 N   0  0  0  0  0  0  0  0  0  0  0  0
    5.5179    6.4731    0.0000 C   0  0  0  0  0  0  0  0  0  0  0  0
    5.4954    4.9732    0.0000 C   0  0  0  0  0  0  0  0  0  0  0  0
    6.7831    4.2039    0.0000 C   0  0  0  0  0  0  0  0  0  0  0  0
    8.0932    4.9344    0.0000 C   0  0  0  0  0  0  0  0  0  0  0  0
    8.1157    6.4342    0.0000 C   0  0  0  0  0  0  0  0  0  0  0  0
    6.8280    7.2036    0.0000 C   0  0  0  0  0  0  0  0  0  0  0  0
    6.8504    8.7034    0.0000 C   0  0  0  0  0  0  0  0  0  0  0  0
    8.1606    9.4339    0.0000 C   0  0  0  0  0  0  0  0  0  0  0  0
    8.1830   10.9337    0.0000 C   0  0  0  0  0  0  0  0  0  0  0  0
    6.8953   11.7030    0.0000 C   0  0  0  0  0  0  0  0  0  0  0  0
    6.9178   13.2029    0.0000 C   0  0  0  0  0  0  0  0  0  0  0  0
    5.6301   13.9722    0.0000 O   0  0  0  0  0  0  0  0  0  0  0  0
    8.2279   13.9334    0.0000 N   0  0  0  0  0  0  0  0  0  0  0  0
    8.2503   15.4332    0.0000 O   0  0  0  0  0  0  0  0  0  0  0  0
    5.5852   10.9726    0.0000 C   0  0  0  0  0  0  0  0  0  0  0  0
    5.5628    9.4727    0.0000 C   0  0  0  0  0  0  0  0  0  0  0  0
    2.1015    2.6351    0.0000 C   0  0  0  0  0  0  0  0  0  0  0  0
    3.0367    3.8079    0.0000 O   0  0  0  0  0  0  0  0  0  0  0  0
    3.0367    1.4624    0.0000 N   0  0  0  0  0  0  0  0  0  0  0  0
  1  2  1  0
  2  3  1  0
  3  4  2  0
  4  5  1  0
  5  6  2  0
  6  7  1  0
  7  8  2  0
  8  9  1  0
  9 10  2  0
 10 11  1  0
 11 12  2  0
 12 13  1  0
 13 14  2  0
 14 15  1  0
 15 16  2  0
 15 17  1  0
 17 18  1  0
 18 19  2  0
 19 20  1  0
 20 21  2  0
 21 22  1  0
 22 23  1  0
 23 24  2  0
 24 25  1  0
 25 26  2  0
 26 27  1  0
 27 28  2  0
 28 29  1  0
 29 30  2  0
 30 31  1  0
 31 32  2  0
 32 33  1  0
 33 34  2  0
 33 35  1  0
 35 36  1  0
 32 37  1  0
 37 38  1  0
 14 39  1  0
 39 40  2  0
 39 41  1  0
 41  3  1  0
 22 18  1  0
 28 23  1  0
 38 29  1  0
M  END
>  <Title>  (253) 
idAAJSgen7

$$$$

     RDKit          2D

 45 50  0  0  0  0  0  0  0  0999 V2000
    1.3926  -14.8530    0.0000 C   0  0  0  0  0  0  0  0  0  0  0  0
    2.7291  -14.1720    0.0000 C   0  0  0  0  0  0  0  0  0  0  0  0
    2.8076  -12.6741    0.0000 C   0  0  0  0  0  0  0  0  0  0  0  0
    4.1442  -11.9931    0.0000 C   0  0  0  0  0  0  0  0  0  0  0  0
    5.4022  -12.8101    0.0000 C   0  0  0  0  0  0  0  0  0  0  0  0
    6.7387  -12.1291    0.0000 N   0  0  0  0  0  0  0  0  0  0  0  0
    8.0752  -12.8101    0.0000 N   0  0  0  0  0  0  0  0  0  0  0  0
    9.1358  -11.7494    0.0000 N   0  0  0  0  0  0  0  0  0  0  0  0
    8.4549  -10.4129    0.0000 N   0  0  0  0  0  0  0  0  0  0  0  0
    6.9733  -10.6476    0.0000 C   0  0  0  0  0  0  0  0  0  0  0  0
    5.9127   -9.5869    0.0000 N   0  0  0  0  0  0  0  0  0  0  0  0
    6.3009   -8.1380    0.0000 C   0  0  0  0  0  0  0  0  0  0  0  0
    7.7498   -7.7498    0.0000 O   0  0  0  0  0  0  0  0  0  0  0  0
    5.2402   -7.0773    0.0000 C   0  0  0  0  0  0  0  0  0  0  0  0
    5.6285   -5.6285    0.0000 C   0  0  0  0  0  0  0  0  0  0  0  0
    4.5678   -4.5678    0.0000 C   0  0  0  0  0  0  0  0  0  0  0  0
    3.1189   -4.9560    0.0000 C   0  0  0  0  0  0  0  0  0  0  0  0
    2.0583   -3.8954    0.0000 C   0  0  0  0  0  0  0  0  0  0  0  0
    0.6094   -4.2836    0.0000 O   0  0  0  0  0  0  0  0  0  0  0  0
    2.4465   -2.4465    0.0000 N   0  0  0  0  0  0  0  0  0  0  0  0
    1.3858   -1.3858    0.0000 C   0  0  0  0  0  0  0  0  0  0  0  0
    1.9598    0.0000    0.0000 C   0  0  0  0  0  0  0  0  0  0  0  0
    1.3858    1.3858    0.0000 C   0  0  0  0  0  0  0  0  0  0  0  0
    0.0000    1.9598    0.0000 C   0  0  0  0  0  0  0  0  0  0  0  0
    0.0000    3.4598    0.0000 C   0  0  0  0  0  0  0  0  0  0  0  0
    1.2990    4.2098    0.0000 C   0  0  0  0  0  0  0  0  0  0  0  0
    1.2990    5.7098    0.0000 C   0  0  0  0  0  0  0  0  0  0  0  0
    0.0000    6.4598    0.0000 C   0  0  0  0  0  0  0  0  0  0  0  0
    0.0000    7.9598    0.0000 C   0  0  0  0  0  0  0  0  0  0  0  0
    1.2990    8.7098    0.0000 C   0  0  0  0  0  0  0  0  0  0  0  0
    1.2990   10.2098    0.0000 C   0  0  0  0  0  0  0  0  0  0  0  0
    0.0000   10.9598    0.0000 C   0  0  0  0  0  0  0  0  0  0  0  0
   -1.2990   10.2098    0.0000 C   0  0  0  0  0  0  0  0  0  0  0  0
   -1.2990    8.7098    0.0000 C   0  0  0  0  0  0  0  0  0  0  0  0
   -1.2990    5.7098    0.0000 C   0  0  0  0  0  0  0  0  0  0  0  0
   -1.2990    4.2098    0.0000 C   0  0  0  0  0  0  0  0  0  0  0  0
   -1.3858    1.3858    0.0000 C   0  0  0  0  0  0  0  0  0  0  0  0
   -1.9598    0.0000    0.0000 C   0  0  0  0  0  0  0  0  0  0  0  0
   -1.3858   -1.3858    0.0000 C   0  0  0  0  0  0  0  0  0  0  0  0
   -0.0000   -1.9598    0.0000 C   0  0  0  0  0  0  0  0  0  0  0  0
    2.7307   -6.4049    0.0000 C   0  0  0  0  0  0  0  0  0  0  0  0
    3.7913   -7.4656    0.0000 C   0  0  0  0  0  0  0  0  0  0  0  0
    5.3237  -14.3080    0.0000 C   0  0  0  0  0  0  0  0  0  0  0  0
    6.5817  -15.1250    0.0000 O   0  0  0  0  0  0  0  0  0  0  0  0
    3.9871  -14.9890    0.0000 N   0  0  0  0  0  0  0  0  0  0  0  0
  1  2  1  0
  2  3  2  0
  3  4  1  0
  4  5  2  0
  5  6  1  0
  6  7  1  0
  7  8  2  0
  8  9  1  0
  9 10  2  0
 10 11  1  0
 11 12  1  0
 12 13  2  0
 12 14  1  0
 14 15  2  0
 15 16  1  0
 16 17  2  0
 17 18  1  0
 18 19  2  0
 18 20  1  0
 20 21  1  0
 21 22  2  0
 22 23  1  0
 23 24  2  0
 24 25  1  0
 25 26  2  0
 26 27  1  0
 27 28  2  0
 28 29  1  0
 29 30  2  0
 30 31  1  0
 31 32  2  0
 32 33  1  0
 33 34  2  0
 28 35  1  0
 35 36  2  0
 24 37  1  0
 37 38  2  0
 38 39  1  0
 39 40  2  0
 17 41  1  0
 41 42  1  0
  5 43  1  0
 43 44  2  0
 43 45  1  0
 45  2  1  0
 10  6  1  0
 42 14  1  0
 40 21  1  0
 36 25  1  0
 34 29  1  0
M  END
>  <Title>  (254) 
idAAJTgen7

$$$$

     RDKit          2D

 25 27  0  0  0  0  0  0  0  0999 V2000
    3.0000    0.0000    0.0000 C   0  0  0  0  0  0  0  0  0  0  0  0
    1.5000    0.0000    0.0000 C   0  0  0  0  0  0  0  0  0  0  0  0
    0.7500   -1.2990    0.0000 C   0  0  0  0  0  0  0  0  0  0  0  0
   -0.7500   -1.2990    0.0000 C   0  0  0  0  0  0  0  0  0  0  0  0
   -1.5000    0.0000    0.0000 C   0  0  0  0  0  0  0  0  0  0  0  0
   -3.0000    0.0000    0.0000 N   0  0  0  0  0  0  0  0  0  0  0  0
   -3.8817   -1.2135    0.0000 N   0  0  0  0  0  0  0  0  0  0  0  0
   -5.3083   -0.7500    0.0000 N   0  0  0  0  0  0  0  0  0  0  0  0
   -5.3083    0.7500    0.0000 N   0  0  0  0  0  0  0  0  0  0  0  0
   -3.8817    1.2135    0.0000 C   0  0  0  0  0  0  0  0  0  0  0  0
   -3.4182    2.6401    0.0000 N   0  0  0  0  0  0  0  0  0  0  0  0
   -4.4218    3.7548    0.0000 C   0  0  0  0  0  0  0  0  0  0  0  0
   -5.8891    3.4430    0.0000 O   0  0  0  0  0  0  0  0  0  0  0  0
   -3.9583    5.1814    0.0000 C   0  0  0  0  0  0  0  0  0  0  0  0
   -2.4911    5.4933    0.0000 C   0  0  0  0  0  0  0  0  0  0  0  0
   -2.0276    6.9199    0.0000 C   0  0  0  0  0  0  0  0  0  0  0  0
   -3.0313    8.0346    0.0000 C   0  0  0  0  0  0  0  0  0  0  0  0
   -2.5677    9.4612    0.0000 C   0  0  0  0  0  0  0  0  0  0  0  0
   -4.4985    7.7227    0.0000 C   0  0  0  0  0  0  0  0  0  0  0  0
   -5.5022    8.8374    0.0000 O   0  0  0  0  0  0  0  0  0  0  0  0
   -4.9620    6.2961    0.0000 N   0  0  0  0  0  0  0  0  0  0  0  0
   -6.4292    5.9843    0.0000 C   0  0  0  0  0  0  0  0  0  0  0  0
   -0.7500    1.2990    0.0000 N   0  0  0  0  0  0  0  0  0  0  0  0
    0.7500    1.2990    0.0000 C   0  0  0  0  0  0  0  0  0  0  0  0
    1.5000    2.5981    0.0000 O   0  0  0  0  0  0  0  0  0  0  0  0
  1  2  1  0
  2  3  2  0
  3  4  1  0
  4  5  2  0
  5  6  1  0
  6  7  1  0
  7  8  2  0
  8  9  1  0
  9 10  2  0
 10 11  1  0
 11 12  1  0
 12 13  2  0
 12 14  1  0
 14 15  2  0
 15 16  1  0
 16 17  2  0
 17 18  1  0
 17 19  1  0
 19 20  2  0
 19 21  1  0
 21 22  1  0
  5 23  1  0
 23 24  1  0
 24 25  2  0
 24  2  1  0
 10  6  1  0
 21 14  1  0
M  END
>  <Title>  (255) 
idAAJUgen7

$$$$

     RDKit          2D

 41 47  0  0  0  0  0  0  0  0999 V2000
    3.0000    0.0000    0.0000 C   0  0  0  0  0  0  0  0  0  0  0  0
    1.5000    0.0000    0.0000 C   0  0  0  0  0  0  0  0  0  0  0  0
    0.7500   -1.2990    0.0000 C   0  0  0  0  0  0  0  0  0  0  0  0
   -0.7500   -1.2990    0.0000 C   0  0  0  0  0  0  0  0  0  0  0  0
   -1.5000    0.0000    0.0000 C   0  0  0  0  0  0  0  0  0  0  0  0
   -3.0000    0.0000    0.0000 C   0  0  0  0  0  0  0  0  0  0  0  0
   -3.8817   -1.2135    0.0000 N   0  0  0  0  0  0  0  0  0  0  0  0
   -5.3083   -0.7500    0.0000 N   0  0  0  0  0  0  0  0  0  0  0  0
   -5.3083    0.7500    0.0000 N   0  0  0  0  0  0  0  0  0  0  0  0
   -3.8817    1.2135    0.0000 N   0  0  0  0  0  0  0  0  0  0  0  0
   -3.4182    2.6401    0.0000 C   0  0  0  0  0  0  0  0  0  0  0  0
   -1.9509    2.9520    0.0000 C   0  0  0  0  0  0  0  0  0  0  0  0
   -1.4874    4.3786    0.0000 C   0  0  0  0  0  0  0  0  0  0  0  0
   -2.4911    5.4933    0.0000 C   0  0  0  0  0  0  0  0  0  0  0  0
   -2.0276    6.9199    0.0000 C   0  0  0  0  0  0  0  0  0  0  0  0
   -2.9093    8.1334    0.0000 N   0  0  0  0  0  0  0  0  0  0  0  0
   -2.0276    9.3469    0.0000 N   0  0  0  0  0  0  0  0  0  0  0  0
   -0.6010    8.8834    0.0000 N   0  0  0  0  0  0  0  0  0  0  0  0
   -0.6010    7.3834    0.0000 N   0  0  0  0  0  0  0  0  0  0  0  0
    0.6125    6.5017    0.0000 C   0  0  0  0  0  0  0  0  0  0  0  0
    0.4557    5.0099    0.0000 C   0  0  0  0  0  0  0  0  0  0  0  0
    1.6693    4.1283    0.0000 C   0  0  0  0  0  0  0  0  0  0  0  0
    3.0396    4.7384    0.0000 C   0  0  0  0  0  0  0  0  0  0  0  0
    3.1964    6.2301    0.0000 C   0  0  0  0  0  0  0  0  0  0  0  0
    1.9829    7.1118    0.0000 C   0  0  0  0  0  0  0  0  0  0  0  0
   -3.9583    5.1814    0.0000 C   0  0  0  0  0  0  0  0  0  0  0  0
   -4.4218    3.7548    0.0000 C   0  0  0  0  0  0  0  0  0  0  0  0
   -5.8891    3.4430    0.0000 C   0  0  0  0  0  0  0  0  0  0  0  0
   -6.8928    4.5577    0.0000 C   0  0  0  0  0  0  0  0  0  0  0  0
   -8.3600    4.2458    0.0000 C   0  0  0  0  0  0  0  0  0  0  0  0
   -8.8235    2.8192    0.0000 C   0  0  0  0  0  0  0  0  0  0  0  0
  -10.2907    2.5074    0.0000 C   0  0  0  0  0  0  0  0  0  0  0  0
  -11.2944    3.6221    0.0000 C   0  0  0  0  0  0  0  0  0  0  0  0
  -12.7617    3.3102    0.0000 C   0  0  0  0  0  0  0  0  0  0  0  0
  -13.2252    1.8836    0.0000 C   0  0  0  0  0  0  0  0  0  0  0  0
  -12.2215    0.7689    0.0000 C   0  0  0  0  0  0  0  0  0  0  0  0
  -10.7543    1.0808    0.0000 C   0  0  0  0  0  0  0  0  0  0  0  0
   -7.8198    1.7045    0.0000 C   0  0  0  0  0  0  0  0  0  0  0  0
   -6.3526    2.0164    0.0000 C   0  0  0  0  0  0  0  0  0  0  0  0
   -0.7500    1.2990    0.0000 C   0  0  0  0  0  0  0  0  0  0  0  0
    0.7500    1.2990    0.0000 C   0  0  0  0  0  0  0  0  0  0  0  0
  1  2  1  0
  2  3  2  0
  3  4  1  0
  4  5  2  0
  5  6  1  0
  6  7  2  0
  7  8  1  0
  8  9  2  0
  9 10  1  0
 10 11  1  0
 11 12  2  0
 12 13  1  0
 13 14  2  0
 14 15  1  0
 15 16  2  0
 16 17  1  0
 17 18  2  0
 18 19  1  0
 19 20  1  0
 20 21  2  0
 21 22  1  0
 22 23  2  0
 23 24  1  0
 24 25  2  0
 14 26  1  0
 26 27  2  0
 27 28  1  0
 28 29  2  0
 29 30  1  0
 30 31  2  0
 31 32  1  0
 32 33  2  0
 33 34  1  0
 34 35  2  0
 35 36  1  0
 36 37  2  0
 31 38  1  0
 38 39  2  0
  5 40  1  0
 40 41  2  0
 41  2  1  0
 10  6  1  0
 27 11  1  0
 39 28  1  0
 19 15  1  0
 25 20  1  0
 37 32  1  0
M  END
>  <Title>  (256) 
idAAJVgen7

$$$$

     RDKit          2D

 61 69  0  0  0  0  0  0  0  0999 V2000
    0.8311   10.2038    0.0000 C   0  0  0  0  0  0  0  0  0  0  0  0
   -0.5392    9.5937    0.0000 C   0  0  0  0  0  0  0  0  0  0  0  0
   -0.6960    8.1019    0.0000 C   0  0  0  0  0  0  0  0  0  0  0  0
   -2.0663    7.4918    0.0000 C   0  0  0  0  0  0  0  0  0  0  0  0
   -3.2798    8.3735    0.0000 C   0  0  0  0  0  0  0  0  0  0  0  0
   -4.6502    7.7634    0.0000 C   0  0  0  0  0  0  0  0  0  0  0  0
   -5.9492    8.5134    0.0000 N   0  0  0  0  0  0  0  0  0  0  0  0
   -7.0639    7.5097    0.0000 N   0  0  0  0  0  0  0  0  0  0  0  0
   -6.4538    6.1393    0.0000 N   0  0  0  0  0  0  0  0  0  0  0  0
   -4.9620    6.2961    0.0000 N   0  0  0  0  0  0  0  0  0  0  0  0
   -3.9583    5.1814    0.0000 C   0  0  0  0  0  0  0  0  0  0  0  0
   -2.4911    5.4933    0.0000 C   0  0  0  0  0  0  0  0  0  0  0  0
   -1.4874    4.3786    0.0000 C   0  0  0  0  0  0  0  0  0  0  0  0
   -1.9509    2.9520    0.0000 C   0  0  0  0  0  0  0  0  0  0  0  0
   -0.9472    1.8373    0.0000 C   0  0  0  0  0  0  0  0  0  0  0  0
    0.5200    2.1491    0.0000 C   0  0  0  0  0  0  0  0  0  0  0  0
    1.5237    1.0344    0.0000 C   0  0  0  0  0  0  0  0  0  0  0  0
    1.0602   -0.3922    0.0000 C   0  0  0  0  0  0  0  0  0  0  0  0
   -0.4071   -0.7040    0.0000 C   0  0  0  0  0  0  0  0  0  0  0  0
   -1.4108    0.4107    0.0000 C   0  0  0  0  0  0  0  0  0  0  0  0
   -3.4182    2.6401    0.0000 C   0  0  0  0  0  0  0  0  0  0  0  0
   -4.4218    3.7548    0.0000 C   0  0  0  0  0  0  0  0  0  0  0  0
   -5.8891    3.4430    0.0000 C   0  0  0  0  0  0  0  0  0  0  0  0
   -6.8928    4.5577    0.0000 C   0  0  0  0  0  0  0  0  0  0  0  0
   -8.3600    4.2458    0.0000 C   0  0  0  0  0  0  0  0  0  0  0  0
   -8.8235    2.8192    0.0000 C   0  0  0  0  0  0  0  0  0  0  0  0
  -10.2907    2.5074    0.0000 N   0  0  0  0  0  0  0  0  0  0  0  0
  -11.2944    3.6221    0.0000 C   0  0  0  0  0  0  0  0  0  0  0  0
  -10.8309    5.0487    0.0000 O   0  0  0  0  0  0  0  0  0  0  0  0
  -12.7617    3.3102    0.0000 C   0  0  0  0  0  0  0  0  0  0  0  0
  -13.7653    4.4249    0.0000 C   0  0  0  0  0  0  0  0  0  0  0  0
  -15.2326    4.1131    0.0000 C   0  0  0  0  0  0  0  0  0  0  0  0
  -15.6961    2.6865    0.0000 C   0  0  0  0  0  0  0  0  0  0  0  0
  -14.6924    1.5718    0.0000 C   0  0  0  0  0  0  0  0  0  0  0  0
  -13.2252    1.8836    0.0000 C   0  0  0  0  0  0  0  0  0  0  0  0
   -7.8198    1.7045    0.0000 C   0  0  0  0  0  0  0  0  0  0  0  0
   -6.3526    2.0164    0.0000 C   0  0  0  0  0  0  0  0  0  0  0  0
   -5.3489    0.9017    0.0000 C   0  0  0  0  0  0  0  0  0  0  0  0
   -5.8124   -0.5249    0.0000 C   0  0  0  0  0  0  0  0  0  0  0  0
   -4.8087   -1.6396    0.0000 C   0  0  0  0  0  0  0  0  0  0  0  0
   -3.3415   -1.3278    0.0000 C   0  0  0  0  0  0  0  0  0  0  0  0
   -2.3378   -2.4425    0.0000 C   0  0  0  0  0  0  0  0  0  0  0  0
   -0.8706   -2.1306    0.0000 O   0  0  0  0  0  0  0  0  0  0  0  0
   -2.8013   -3.8691    0.0000 N   0  0  0  0  0  0  0  0  0  0  0  0
   -1.7976   -4.9838    0.0000 C   0  0  0  0  0  0  0  0  0  0  0  0
   -2.2612   -6.4104    0.0000 C   0  0  0  0  0  0  0  0  0  0  0  0
   -1.2575   -7.5251    0.0000 C   0  0  0  0  0  0  0  0  0  0  0  0
    0.2098   -7.2132    0.0000 C   0  0  0  0  0  0  0  0  0  0  0  0
    1.2134   -8.3279    0.0000 C   0  0  0  0  0  0  0  0  0  0  0  0
    0.7499   -9.7545    0.0000 C   0  0  0  0  0  0  0  0  0  0  0  0
    1.7536  -10.8692    0.0000 C   0  0  0  0  0  0  0  0  0  0  0  0
    3.2208  -10.5574    0.0000 C   0  0  0  0  0  0  0  0  0  0  0  0
    3.6844   -9.1308    0.0000 C   0  0  0  0  0  0  0  0  0  0  0  0
    2.6807   -8.0161    0.0000 C   0  0  0  0  0  0  0  0  0  0  0  0
    0.6733   -5.7866    0.0000 C   0  0  0  0  0  0  0  0  0  0  0  0
   -0.3304   -4.6719    0.0000 C   0  0  0  0  0  0  0  0  0  0  0  0
   -2.8780    0.0988    0.0000 C   0  0  0  0  0  0  0  0  0  0  0  0
   -3.8817    1.2135    0.0000 C   0  0  0  0  0  0  0  0  0  0  0  0
   -3.1230    9.8652    0.0000 C   0  0  0  0  0  0  0  0  0  0  0  0
   -4.3366   10.7469    0.0000 O   0  0  0  0  0  0  0  0  0  0  0  0
   -1.7527   10.4753    0.0000 N   0  0  0  0  0  0  0  0  0  0  0  0
  1  2  1  0
  2  3  2  0
  3  4  1  0
  4  5  2  0
  5  6  1  0
  6  7  2  0
  7  8  1  0
  8  9  2  0
  9 10  1  0
 10 11  1  0
 11 12  2  0
 12 13  1  0
 13 14  2  0
 14 15  1  0
 15 16  2  0
 16 17  1  0
 17 18  2  0
 18 19  1  0
 19 20  2  0
 14 21  1  0
 21 22  2  0
 22 23  1  0
 23 24  2  0
 24 25  1  0
 25 26  2  0
 26 27  1  0
 27 28  1  0
 28 29  2  0
 28 30  1  0
 30 31  2  0
 31 32  1  0
 32 33  2  0
 33 34  1  0
 34 35  2  0
 26 36  1  0
 36 37  2  0
 37 38  1  0
 38 39  2  0
 39 40  1  0
 40 41  2  0
 41 42  1  0
 42 43  2  0
 42 44  1  0
 44 45  1  0
 45 46  2  0
 46 47  1  0
 47 48  2  0
 48 49  1  0
 49 50  2  0
 50 51  1  0
 51 52  2  0
 52 53  1  0
 53 54  2  0
 48 55  1  0
 55 56  2  0
 41 57  1  0
 57 58  2  0
  5 59  1  0
 59 60  2  0
 59 61  1  0
 61  2  1  0
 10  6  1  0
 22 11  1  0
 37 23  1  0
 58 38  1  0
 20 15  1  0
 35 30  1  0
 56 45  1  0
 54 49  1  0
M  END
>  <Title>  (257) 
idAAJWgen7

$$$$

     RDKit          2D

 27 30  0  0  0  0  0  0  0  0999 V2000
    3.0000    0.0000    0.0000 C   0  0  0  0  0  0  0  0  0  0  0  0
    1.5000    0.0000    0.0000 C   0  0  0  0  0  0  0  0  0  0  0  0
    0.7500   -1.2990    0.0000 C   0  0  0  0  0  0  0  0  0  0  0  0
   -0.7500   -1.2990    0.0000 C   0  0  0  0  0  0  0  0  0  0  0  0
   -1.5000    0.0000    0.0000 C   0  0  0  0  0  0  0  0  0  0  0  0
   -3.0000    0.0000    0.0000 C   0  0  0  0  0  0  0  0  0  0  0  0
   -3.8817   -1.2135    0.0000 N   0  0  0  0  0  0  0  0  0  0  0  0
   -5.3083   -0.7500    0.0000 N   0  0  0  0  0  0  0  0  0  0  0  0
   -5.3083    0.7500    0.0000 N   0  0  0  0  0  0  0  0  0  0  0  0
   -3.8817    1.2135    0.0000 N   0  0  0  0  0  0  0  0  0  0  0  0
   -3.4182    2.6401    0.0000 C   0  0  0  0  0  0  0  0  0  0  0  0
   -1.9509    2.9520    0.0000 C   0  0  0  0  0  0  0  0  0  0  0  0
   -1.4874    4.3786    0.0000 C   0  0  0  0  0  0  0  0  0  0  0  0
   -2.4911    5.4933    0.0000 C   0  0  0  0  0  0  0  0  0  0  0  0
   -2.0276    6.9199    0.0000 C   0  0  0  0  0  0  0  0  0  0  0  0
   -3.0313    8.0346    0.0000 O   0  0  0  0  0  0  0  0  0  0  0  0
   -0.5604    7.2317    0.0000 N   0  0  0  0  0  0  0  0  0  0  0  0
   -0.0968    8.6583    0.0000 C   0  0  0  0  0  0  0  0  0  0  0  0
    1.3704    8.9702    0.0000 C   0  0  0  0  0  0  0  0  0  0  0  0
    1.8339   10.3968    0.0000 C   0  0  0  0  0  0  0  0  0  0  0  0
    0.8302   11.5115    0.0000 C   0  0  0  0  0  0  0  0  0  0  0  0
   -0.6370   11.1996    0.0000 C   0  0  0  0  0  0  0  0  0  0  0  0
   -1.1005    9.7730    0.0000 C   0  0  0  0  0  0  0  0  0  0  0  0
   -3.9583    5.1814    0.0000 C   0  0  0  0  0  0  0  0  0  0  0  0
   -4.4218    3.7548    0.0000 C   0  0  0  0  0  0  0  0  0  0  0  0
   -0.7500    1.2990    0.0000 C   0  0  0  0  0  0  0  0  0  0  0  0
    0.7500    1.2990    0.0000 C   0  0  0  0  0  0  0  0  0  0  0  0
  1  2  1  0
  2  3  2  0
  3  4  1  0
  4  5  2  0
  5  6  1  0
  6  7  2  0
  7  8  1  0
  8  9  2  0
  9 10  1  0
 10 11  1  0
 11 12  2  0
 12 13  1  0
 13 14  2  0
 14 15  1  0
 15 16  2  0
 15 17  1  0
 17 18  1  0
 18 19  2  0
 19 20  1  0
 20 21  2  0
 21 22  1  0
 22 23  2  0
 14 24  1  0
 24 25  2  0
  5 26  1  0
 26 27  2  0
 27  2  1  0
 10  6  1  0
 25 11  1  0
 23 18  1  0
M  END
>  <Title>  (258) 
idAAJXgen7

$$$$

     RDKit          2D

 27 30  0  0  0  0  0  0  0  0999 V2000
    3.0000    0.0000    0.0000 C   0  0  0  0  0  0  0  0  0  0  0  0
    1.5000    0.0000    0.0000 C   0  0  0  0  0  0  0  0  0  0  0  0
    0.7500   -1.2990    0.0000 C   0  0  0  0  0  0  0  0  0  0  0  0
   -0.7500   -1.2990    0.0000 C   0  0  0  0  0  0  0  0  0  0  0  0
   -1.5000    0.0000    0.0000 C   0  0  0  0  0  0  0  0  0  0  0  0
   -3.0000    0.0000    0.0000 C   0  0  0  0  0  0  0  0  0  0  0  0
   -3.7500   -1.2990    0.0000 O   0  0  0  0  0  0  0  0  0  0  0  0
   -3.7500    1.2990    0.0000 N   0  0  0  0  0  0  0  0  0  0  0  0
   -5.2500    1.2990    0.0000 C   0  0  0  0  0  0  0  0  0  0  0  0
   -6.0000    2.5981    0.0000 C   0  0  0  0  0  0  0  0  0  0  0  0
   -7.5000    2.5981    0.0000 C   0  0  0  0  0  0  0  0  0  0  0  0
   -8.2500    1.2990    0.0000 C   0  0  0  0  0  0  0  0  0  0  0  0
   -9.7500    1.2990    0.0000 C   0  0  0  0  0  0  0  0  0  0  0  0
  -10.6317    0.0855    0.0000 N   0  0  0  0  0  0  0  0  0  0  0  0
  -12.0583    0.5490    0.0000 N   0  0  0  0  0  0  0  0  0  0  0  0
  -12.0583    2.0490    0.0000 N   0  0  0  0  0  0  0  0  0  0  0  0
  -10.6317    2.5126    0.0000 N   0  0  0  0  0  0  0  0  0  0  0  0
  -10.1682    3.9391    0.0000 C   0  0  0  0  0  0  0  0  0  0  0  0
   -8.7009    4.2510    0.0000 C   0  0  0  0  0  0  0  0  0  0  0  0
   -8.2374    5.6776    0.0000 C   0  0  0  0  0  0  0  0  0  0  0  0
   -9.2411    6.7923    0.0000 C   0  0  0  0  0  0  0  0  0  0  0  0
  -10.7083    6.4805    0.0000 C   0  0  0  0  0  0  0  0  0  0  0  0
  -11.1718    5.0539    0.0000 C   0  0  0  0  0  0  0  0  0  0  0  0
   -7.5000    0.0000    0.0000 C   0  0  0  0  0  0  0  0  0  0  0  0
   -6.0000    0.0000    0.0000 C   0  0  0  0  0  0  0  0  0  0  0  0
   -0.7500    1.2990    0.0000 C   0  0  0  0  0  0  0  0  0  0  0  0
    0.7500    1.2990    0.0000 C   0  0  0  0  0  0  0  0  0  0  0  0
  1  2  1  0
  2  3  2  0
  3  4  1  0
  4  5  2  0
  5  6  1  0
  6  7  2  0
  6  8  1  0
  8  9  1  0
  9 10  2  0
 10 11  1  0
 11 12  2  0
 12 13  1  0
 13 14  2  0
 14 15  1  0
 15 16  2  0
 16 17  1  0
 17 18  1  0
 18 19  2  0
 19 20  1  0
 20 21  2  0
 21 22  1  0
 22 23  2  0
 12 24  1  0
 24 25  2  0
  5 26  1  0
 26 27  2  0
 27  2  1  0
 25  9  1  0
 17 13  1  0
 23 18  1  0
M  END
>  <Title>  (259) 
idAAJYgen7

$$$$

     RDKit          2D

 34 38  0  0  0  0  0  0  0  0999 V2000
    3.0000    0.0000    0.0000 C   0  0  0  0  0  0  0  0  0  0  0  0
    1.5000    0.0000    0.0000 C   0  0  0  0  0  0  0  0  0  0  0  0
    0.7500   -1.2990    0.0000 C   0  0  0  0  0  0  0  0  0  0  0  0
   -0.7500   -1.2990    0.0000 C   0  0  0  0  0  0  0  0  0  0  0  0
   -1.5000    0.0000    0.0000 C   0  0  0  0  0  0  0  0  0  0  0  0
   -3.0000    0.0000    0.0000 C   0  0  0  0  0  0  0  0  0  0  0  0
   -3.7500   -1.2990    0.0000 O   0  0  0  0  0  0  0  0  0  0  0  0
   -3.7500    1.2990    0.0000 N   0  0  0  0  0  0  0  0  0  0  0  0
   -5.2500    1.2990    0.0000 C   0  0  0  0  0  0  0  0  0  0  0  0
   -6.1317    0.0855    0.0000 N   0  0  0  0  0  0  0  0  0  0  0  0
   -7.5583    0.5490    0.0000 N   0  0  0  0  0  0  0  0  0  0  0  0
   -7.5583    2.0490    0.0000 N   0  0  0  0  0  0  0  0  0  0  0  0
   -6.1317    2.5126    0.0000 N   0  0  0  0  0  0  0  0  0  0  0  0
   -5.6682    3.9391    0.0000 C   0  0  0  0  0  0  0  0  0  0  0  0
   -4.2009    4.2510    0.0000 C   0  0  0  0  0  0  0  0  0  0  0  0
   -3.7374    5.6776    0.0000 C   0  0  0  0  0  0  0  0  0  0  0  0
   -4.7411    6.7923    0.0000 C   0  0  0  0  0  0  0  0  0  0  0  0
   -4.2776    8.2189    0.0000 C   0  0  0  0  0  0  0  0  0  0  0  0
   -2.8104    8.5308    0.0000 C   0  0  0  0  0  0  0  0  0  0  0  0
   -2.3468    9.9574    0.0000 C   0  0  0  0  0  0  0  0  0  0  0  0
   -3.3505   11.0721    0.0000 C   0  0  0  0  0  0  0  0  0  0  0  0
   -2.8870   12.4987    0.0000 C   0  0  0  0  0  0  0  0  0  0  0  0
   -1.4198   12.8105    0.0000 C   0  0  0  0  0  0  0  0  0  0  0  0
   -0.9563   14.2371    0.0000 C   0  0  0  0  0  0  0  0  0  0  0  0
   -1.9599   15.3518    0.0000 C   0  0  0  0  0  0  0  0  0  0  0  0
   -3.4272   15.0400    0.0000 C   0  0  0  0  0  0  0  0  0  0  0  0
   -3.8907   13.6134    0.0000 C   0  0  0  0  0  0  0  0  0  0  0  0
   -4.8177   10.7602    0.0000 C   0  0  0  0  0  0  0  0  0  0  0  0
   -5.2813    9.3336    0.0000 C   0  0  0  0  0  0  0  0  0  0  0  0
   -6.2083    6.4805    0.0000 C   0  0  0  0  0  0  0  0  0  0  0  0
   -7.2120    7.5952    0.0000 O   0  0  0  0  0  0  0  0  0  0  0  0
   -6.6718    5.0539    0.0000 N   0  0  0  0  0  0  0  0  0  0  0  0
   -0.7500    1.2990    0.0000 C   0  0  0  0  0  0  0  0  0  0  0  0
    0.7500    1.2990    0.0000 C   0  0  0  0  0  0  0  0  0  0  0  0
  1  2  1  0
  2  3  2  0
  3  4  1  0
  4  5  2  0
  5  6  1  0
  6  7  2  0
  6  8  1  0
  8  9  1  0
  9 10  2  0
 10 11  1  0
 11 12  2  0
 12 13  1  0
 13 14  1  0
 14 15  2  0
 15 16  1  0
 16 17  2  0
 17 18  1  0
 18 19  2  0
 19 20  1  0
 20 21  2  0
 21 22  1  0
 22 23  2  0
 23 24  1  0
 24 25  2  0
 25 26  1  0
 26 27  2  0
 21 28  1  0
 28 29  2  0
 17 30  1  0
 30 31  2  0
 30 32  1  0
  5 33  1  0
 33 34  1  0
 34  2  1  0
 13  9  1  0
 32 14  1  0
 29 18  1  0
 27 22  1  0
M  END
>  <Title>  (260) 
idAAJZgen7

$$$$

     RDKit          2D

 19 20  0  0  0  0  0  0  0  0999 V2000
    3.0000    0.0000    0.0000 C   0  0  0  0  0  0  0  0  0  0  0  0
    1.5000    0.0000    0.0000 C   0  0  0  0  0  0  0  0  0  0  0  0
    0.7500   -1.2990    0.0000 C   0  0  0  0  0  0  0  0  0  0  0  0
   -0.7500   -1.2990    0.0000 C   0  0  0  0  0  0  0  0  0  0  0  0
   -1.5000    0.0000    0.0000 C   0  0  0  0  0  0  0  0  0  0  0  0
   -3.0000    0.0000    0.0000 C   0  0  0  0  0  0  0  0  0  0  0  0
   -3.7500   -1.2990    0.0000 O   0  0  0  0  0  0  0  0  0  0  0  0
   -3.7500    1.2990    0.0000 N   0  0  0  0  0  0  0  0  0  0  0  0
   -5.2500    1.2990    0.0000 C   0  0  0  0  0  0  0  0  0  0  0  0
   -6.1317    0.0855    0.0000 N   0  0  0  0  0  0  0  0  0  0  0  0
   -7.5583    0.5490    0.0000 C   0  0  0  0  0  0  0  0  0  0  0  0
   -8.7718   -0.3326    0.0000 N   0  0  0  0  0  0  0  0  0  0  0  0
  -10.1421    0.2775    0.0000 C   0  0  0  0  0  0  0  0  0  0  0  0
   -8.6150   -1.8244    0.0000 C   0  0  0  0  0  0  0  0  0  0  0  0
   -7.5583    2.0490    0.0000 C   0  0  0  0  0  0  0  0  0  0  0  0
   -8.7718    2.9307    0.0000 O   0  0  0  0  0  0  0  0  0  0  0  0
   -6.1317    2.5126    0.0000 N   0  0  0  0  0  0  0  0  0  0  0  0
   -0.7500    1.2990    0.0000 N   0  0  0  0  0  0  0  0  0  0  0  0
    0.7500    1.2990    0.0000 C   0  0  0  0  0  0  0  0  0  0  0  0
  1  2  1  0
  2  3  2  0
  3  4  1  0
  4  5  2  0
  5  6  1  0
  6  7  2  0
  6  8  1  0
  8  9  1  0
  9 10  2  0
 10 11  1  0
 11 12  1  0
 12 13  1  0
 12 14  1  0
 11 15  1  0
 15 16  2  0
 15 17  1  0
  5 18  1  0
 18 19  1  0
 19  2  1  0
 17  9  1  0
M  END
>  <Title>  (261) 
idAAKAgen7

$$$$

     RDKit          2D

 33 37  0  0  0  0  0  0  0  0999 V2000
    9.3712   -5.3023    0.0000 C   0  0  0  0  0  0  0  0  0  0  0  0
    9.1255   -3.8226    0.0000 C   0  0  0  0  0  0  0  0  0  0  0  0
    7.7211   -3.2956    0.0000 C   0  0  0  0  0  0  0  0  0  0  0  0
    6.5625   -4.2482    0.0000 C   0  0  0  0  0  0  0  0  0  0  0  0
    5.1581   -3.7212    0.0000 C   0  0  0  0  0  0  0  0  0  0  0  0
    4.9124   -2.2414    0.0000 C   0  0  0  0  0  0  0  0  0  0  0  0
    3.5081   -1.7144    0.0000 C   0  0  0  0  0  0  0  0  0  0  0  0
    2.2562   -2.5407    0.0000 N   0  0  0  0  0  0  0  0  0  0  0  0
    1.0835   -1.6055    0.0000 N   0  0  0  0  0  0  0  0  0  0  0  0
    1.6105   -0.2011    0.0000 N   0  0  0  0  0  0  0  0  0  0  0  0
    3.1090   -0.2684    0.0000 N   0  0  0  0  0  0  0  0  0  0  0  0
    4.0442    0.9043    0.0000 C   0  0  0  0  0  0  0  0  0  0  0  0
    5.5275    0.6808    0.0000 C   0  0  0  0  0  0  0  0  0  0  0  0
    6.4627    1.8535    0.0000 C   0  0  0  0  0  0  0  0  0  0  0  0
    5.9147    3.2498    0.0000 C   0  0  0  0  0  0  0  0  0  0  0  0
    6.8499    4.4226    0.0000 C   0  0  0  0  0  0  0  0  0  0  0  0
    8.3332    4.1990    0.0000 C   0  0  0  0  0  0  0  0  0  0  0  0
    9.2684    5.3718    0.0000 C   0  0  0  0  0  0  0  0  0  0  0  0
    8.7204    6.7681    0.0000 C   0  0  0  0  0  0  0  0  0  0  0  0
    7.2372    6.9916    0.0000 C   0  0  0  0  0  0  0  0  0  0  0  0
    6.3019    5.8189    0.0000 C   0  0  0  0  0  0  0  0  0  0  0  0
    4.4315    3.4734    0.0000 C   0  0  0  0  0  0  0  0  0  0  0  0
    3.4962    2.3006    0.0000 C   0  0  0  0  0  0  0  0  0  0  0  0
    2.0130    2.5242    0.0000 C   0  0  0  0  0  0  0  0  0  0  0  0
    1.4650    3.9205    0.0000 C   0  0  0  0  0  0  0  0  0  0  0  0
   -0.0308    4.0326    0.0000 C   0  0  0  0  0  0  0  0  0  0  0  0
   -0.8758    5.2720    0.0000 C   0  0  0  0  0  0  0  0  0  0  0  0
   -0.4337    6.7053    0.0000 C   0  0  0  0  0  0  0  0  0  0  0  0
    0.9626    7.2533    0.0000 C   0  0  0  0  0  0  0  0  0  0  0  0
    2.2617    6.5033    0.0000 C   0  0  0  0  0  0  0  0  0  0  0  0
    2.4852    5.0201    0.0000 C   0  0  0  0  0  0  0  0  0  0  0  0
    6.0710   -1.2888    0.0000 C   0  0  0  0  0  0  0  0  0  0  0  0
    7.4754   -1.8158    0.0000 C   0  0  0  0  0  0  0  0  0  0  0  0
  1  2  1  0
  2  3  1  0
  3  4  2  0
  4  5  1  0
  5  6  2  0
  6  7  1  0
  7  8  2  0
  8  9  1  0
  9 10  2  0
 10 11  1  0
 11 12  1  0
 12 13  2  0
 13 14  1  0
 14 15  2  0
 15 16  1  0
 16 17  2  0
 17 18  1  0
 18 19  2  0
 19 20  1  0
 20 21  2  0
 15 22  1  0
 22 23  2  0
 23 24  1  0
 24 25  2  3
 25 26  1  0
 26 27  2  0
 27 28  1  0
 28 29  2  0
 29 30  1  0
 30 31  2  0
  6 32  1  0
 32 33  1  0
 33  3  1  0
 11  7  1  0
 23 12  1  0
 31 25  1  0
 21 16  1  0
M  END
>  <Title>  (262) 
idAAKBgen7

$$$$

     RDKit          2D

 45 51  0  0  0  0  0  0  0  0999 V2000
  -14.9962    3.2492    0.0000 C   0  0  0  0  0  0  0  0  0  0  0  0
  -13.7827    2.3676    0.0000 C   0  0  0  0  0  0  0  0  0  0  0  0
  -12.4124    2.9777    0.0000 C   0  0  0  0  0  0  0  0  0  0  0  0
  -11.1988    2.0960    0.0000 C   0  0  0  0  0  0  0  0  0  0  0  0
  -11.3556    0.6042    0.0000 C   0  0  0  0  0  0  0  0  0  0  0  0
  -10.1421   -0.2775    0.0000 C   0  0  0  0  0  0  0  0  0  0  0  0
  -10.2989   -1.7692    0.0000 O   0  0  0  0  0  0  0  0  0  0  0  0
   -8.7718    0.3326    0.0000 N   0  0  0  0  0  0  0  0  0  0  0  0
   -7.5583   -0.5490    0.0000 C   0  0  0  0  0  0  0  0  0  0  0  0
   -7.5583   -2.0490    0.0000 N   0  0  0  0  0  0  0  0  0  0  0  0
   -6.1317   -2.5126    0.0000 N   0  0  0  0  0  0  0  0  0  0  0  0
   -5.2500   -1.2990    0.0000 N   0  0  0  0  0  0  0  0  0  0  0  0
   -6.1317   -0.0855    0.0000 N   0  0  0  0  0  0  0  0  0  0  0  0
   -5.6682    1.3411    0.0000 C   0  0  0  0  0  0  0  0  0  0  0  0
   -4.2009    1.6529    0.0000 C   0  0  0  0  0  0  0  0  0  0  0  0
   -3.7374    3.0795    0.0000 C   0  0  0  0  0  0  0  0  0  0  0  0
   -4.7411    4.1942    0.0000 C   0  0  0  0  0  0  0  0  0  0  0  0
   -4.2776    5.6208    0.0000 C   0  0  0  0  0  0  0  0  0  0  0  0
   -5.1593    6.8344    0.0000 N   0  0  0  0  0  0  0  0  0  0  0  0
   -4.2776    8.0479    0.0000 N   0  0  0  0  0  0  0  0  0  0  0  0
   -2.8510    7.5844    0.0000 N   0  0  0  0  0  0  0  0  0  0  0  0
   -2.8510    6.0844    0.0000 N   0  0  0  0  0  0  0  0  0  0  0  0
   -1.6375    5.2027    0.0000 C   0  0  0  0  0  0  0  0  0  0  0  0
   -1.7943    3.7109    0.0000 C   0  0  0  0  0  0  0  0  0  0  0  0
   -0.5807    2.8292    0.0000 C   0  0  0  0  0  0  0  0  0  0  0  0
    0.7896    3.4393    0.0000 C   0  0  0  0  0  0  0  0  0  0  0  0
    2.0031    2.5576    0.0000 C   0  0  0  0  0  0  0  0  0  0  0  0
    1.8463    1.0659    0.0000 C   0  0  0  0  0  0  0  0  0  0  0  0
    3.0598    0.1842    0.0000 C   0  0  0  0  0  0  0  0  0  0  0  0
    4.4302    0.7943    0.0000 C   0  0  0  0  0  0  0  0  0  0  0  0
    4.5870    2.2861    0.0000 C   0  0  0  0  0  0  0  0  0  0  0  0
    3.3734    3.1677    0.0000 C   0  0  0  0  0  0  0  0  0  0  0  0
    0.9464    4.9311    0.0000 C   0  0  0  0  0  0  0  0  0  0  0  0
   -0.2671    5.8128    0.0000 C   0  0  0  0  0  0  0  0  0  0  0  0
   -0.1104    7.3046    0.0000 C   0  0  0  0  0  0  0  0  0  0  0  0
    1.2600    7.9147    0.0000 C   0  0  0  0  0  0  0  0  0  0  0  0
    1.4168    9.4064    0.0000 C   0  0  0  0  0  0  0  0  0  0  0  0
    0.2032   10.2881    0.0000 C   0  0  0  0  0  0  0  0  0  0  0  0
   -1.1671    9.6780    0.0000 C   0  0  0  0  0  0  0  0  0  0  0  0
   -1.3239    8.1862    0.0000 C   0  0  0  0  0  0  0  0  0  0  0  0
   -6.2083    3.8824    0.0000 N   0  0  0  0  0  0  0  0  0  0  0  0
   -6.6718    2.4558    0.0000 N   0  0  0  0  0  0  0  0  0  0  0  0
  -12.7260   -0.0059    0.0000 C   0  0  0  0  0  0  0  0  0  0  0  0
  -12.8827   -1.4977    0.0000 C   0  0  0  0  0  0  0  0  0  0  0  0
  -13.9395    0.8758    0.0000 C   0  0  0  0  0  0  0  0  0  0  0  0
  1  2  1  0
  2  3  2  0
  3  4  1  0
  4  5  2  0
  5  6  1  0
  6  7  2  0
  6  8  1  0
  8  9  1  0
  9 10  2  0
 10 11  1  0
 11 12  2  0
 12 13  1  0
 13 14  1  0
 14 15  2  0
 15 16  1  0
 16 17  2  0
 17 18  1  0
 18 19  2  0
 19 20  1  0
 20 21  2  0
 21 22  1  0
 22 23  1  0
 23 24  2  0
 24 25  1  0
 25 26  2  0
 26 27  1  0
 27 28  2  0
 28 29  1  0
 29 30  2  0
 30 31  1  0
 31 32  2  0
 26 33  1  0
 33 34  2  0
 34 35  1  0
 35 36  2  0
 36 37  1  0
 37 38  2  0
 38 39  1  0
 39 40  2  0
 17 41  1  0
 41 42  2  0
  5 43  1  0
 43 44  1  0
 43 45  1  0
 45  2  1  0
 13  9  1  0
 42 14  1  0
 22 18  1  0
 34 23  1  0
 40 35  1  0
 32 27  1  0
M  END
>  <Title>  (263) 
idAAKCgen7

$$$$

     RDKit          2D

 38 43  0  0  0  0  0  0  0  0999 V2000
    7.5646   -0.1148    0.0000 C   0  0  0  0  0  0  0  0  0  0  0  0
    6.0974   -0.4266    0.0000 C   0  0  0  0  0  0  0  0  0  0  0  0
    4.9826    0.5771    0.0000 C   0  0  0  0  0  0  0  0  0  0  0  0
    3.6836   -0.1729    0.0000 C   0  0  0  0  0  0  0  0  0  0  0  0
    3.9955   -1.6402    0.0000 C   0  0  0  0  0  0  0  0  0  0  0  0
    2.9918   -2.7549    0.0000 C   0  0  0  0  0  0  0  0  0  0  0  0
    3.3037   -4.2221    0.0000 N   0  0  0  0  0  0  0  0  0  0  0  0
    2.0046   -4.9721    0.0000 N   0  0  0  0  0  0  0  0  0  0  0  0
    0.8899   -3.9684    0.0000 N   0  0  0  0  0  0  0  0  0  0  0  0
    1.5000   -2.5981    0.0000 N   0  0  0  0  0  0  0  0  0  0  0  0
    0.7500   -1.2990    0.0000 C   0  0  0  0  0  0  0  0  0  0  0  0
    1.5000    0.0000    0.0000 C   0  0  0  0  0  0  0  0  0  0  0  0
    0.7500    1.2990    0.0000 C   0  0  0  0  0  0  0  0  0  0  0  0
   -0.7500    1.2990    0.0000 C   0  0  0  0  0  0  0  0  0  0  0  0
   -1.5000    2.5981    0.0000 C   0  0  0  0  0  0  0  0  0  0  0  0
   -0.7500    3.8971    0.0000 C   0  0  0  0  0  0  0  0  0  0  0  0
   -1.5000    5.1962    0.0000 C   0  0  0  0  0  0  0  0  0  0  0  0
   -3.0000    5.1962    0.0000 C   0  0  0  0  0  0  0  0  0  0  0  0
   -3.7500    3.8971    0.0000 C   0  0  0  0  0  0  0  0  0  0  0  0
   -3.0000    2.5981    0.0000 C   0  0  0  0  0  0  0  0  0  0  0  0
   -1.5000    0.0000    0.0000 C   0  0  0  0  0  0  0  0  0  0  0  0
   -0.7500   -1.2990    0.0000 C   0  0  0  0  0  0  0  0  0  0  0  0
   -1.5000   -2.5981    0.0000 C   0  0  0  0  0  0  0  0  0  0  0  0
   -0.8899   -3.9684    0.0000 C   0  0  0  0  0  0  0  0  0  0  0  0
   -2.0046   -4.9721    0.0000 C   0  0  0  0  0  0  0  0  0  0  0  0
   -3.3037   -4.2221    0.0000 C   0  0  0  0  0  0  0  0  0  0  0  0
   -4.6740   -4.8322    0.0000 C   0  0  0  0  0  0  0  0  0  0  0  0
   -4.8308   -6.3240    0.0000 O   0  0  0  0  0  0  0  0  0  0  0  0
   -5.8875   -3.9505    0.0000 N   0  0  0  0  0  0  0  0  0  0  0  0
   -7.2578   -4.5606    0.0000 C   0  0  0  0  0  0  0  0  0  0  0  0
   -8.4713   -3.6789    0.0000 C   0  0  0  0  0  0  0  0  0  0  0  0
   -9.8417   -4.2890    0.0000 C   0  0  0  0  0  0  0  0  0  0  0  0
   -9.9984   -5.7808    0.0000 C   0  0  0  0  0  0  0  0  0  0  0  0
   -8.7849   -6.6625    0.0000 C   0  0  0  0  0  0  0  0  0  0  0  0
   -7.4146   -6.0524    0.0000 C   0  0  0  0  0  0  0  0  0  0  0  0
   -2.9918   -2.7549    0.0000 C   0  0  0  0  0  0  0  0  0  0  0  0
   -3.9955   -1.6402    0.0000 O   0  0  0  0  0  0  0  0  0  0  0  0
    5.4873   -1.7969    0.0000 C   0  0  0  0  0  0  0  0  0  0  0  0
  1  2  1  0
  2  3  2  0
  3  4  1  0
  4  5  2  0
  5  6  1  0
  6  7  2  0
  7  8  1  0
  8  9  2  0
  9 10  1  0
 10 11  1  0
 11 12  2  0
 12 13  1  0
 13 14  2  0
 14 15  1  0
 15 16  2  0
 16 17  1  0
 17 18  2  0
 18 19  1  0
 19 20  2  0
 14 21  1  0
 21 22  2  0
 22 23  1  0
 23 24  2  0
 24 25  1  0
 25 26  2  0
 26 27  1  0
 27 28  2  0
 27 29  1  0
 29 30  1  0
 30 31  2  0
 31 32  1  0
 32 33  2  0
 33 34  1  0
 34 35  2  0
 26 36  1  0
 36 37  2  0
  5 38  1  0
 38  2  1  0
 10  6  1  0
 22 11  1  0
 36 23  1  0
 20 15  1  0
 35 30  1  0
M  END
>  <Title>  (264) 
idAAKDgen7

$$$$

     RDKit          2D

 30 33  0  0  0  0  0  0  0  0999 V2000
    5.2500   -1.2990    0.0000 C   0  0  0  0  0  0  0  0  0  0  0  0
    3.7500   -1.2990    0.0000 C   0  0  0  0  0  0  0  0  0  0  0  0
    3.0000   -2.5981    0.0000 O   0  0  0  0  0  0  0  0  0  0  0  0
    3.0000    0.0000    0.0000 O   0  0  0  0  0  0  0  0  0  0  0  0
    1.5000    0.0000    0.0000 C   0  0  0  0  0  0  0  0  0  0  0  0
    0.7500   -1.2990    0.0000 C   0  0  0  0  0  0  0  0  0  0  0  0
   -0.7500   -1.2990    0.0000 C   0  0  0  0  0  0  0  0  0  0  0  0
   -1.5000    0.0000    0.0000 C   0  0  0  0  0  0  0  0  0  0  0  0
   -3.0000    0.0000    0.0000 C   0  0  0  0  0  0  0  0  0  0  0  0
   -3.7500   -1.2990    0.0000 O   0  0  0  0  0  0  0  0  0  0  0  0
   -3.7500    1.2990    0.0000 N   0  0  0  0  0  0  0  0  0  0  0  0
   -5.2500    1.2990    0.0000 C   0  0  0  0  0  0  0  0  0  0  0  0
   -6.1317    0.0855    0.0000 N   0  0  0  0  0  0  0  0  0  0  0  0
   -7.5583    0.5490    0.0000 N   0  0  0  0  0  0  0  0  0  0  0  0
   -7.5583    2.0490    0.0000 N   0  0  0  0  0  0  0  0  0  0  0  0
   -6.1317    2.5126    0.0000 N   0  0  0  0  0  0  0  0  0  0  0  0
   -5.6682    3.9391    0.0000 C   0  0  0  0  0  0  0  0  0  0  0  0
   -4.2009    4.2510    0.0000 C   0  0  0  0  0  0  0  0  0  0  0  0
   -3.7374    5.6776    0.0000 C   0  0  0  0  0  0  0  0  0  0  0  0
   -4.7411    6.7923    0.0000 C   0  0  0  0  0  0  0  0  0  0  0  0
   -4.2776    8.2189    0.0000 C   0  0  0  0  0  0  0  0  0  0  0  0
   -2.8104    8.5308    0.0000 C   0  0  0  0  0  0  0  0  0  0  0  0
   -2.3468    9.9574    0.0000 C   0  0  0  0  0  0  0  0  0  0  0  0
   -3.3505   11.0721    0.0000 C   0  0  0  0  0  0  0  0  0  0  0  0
   -4.8177   10.7602    0.0000 C   0  0  0  0  0  0  0  0  0  0  0  0
   -5.2813    9.3336    0.0000 C   0  0  0  0  0  0  0  0  0  0  0  0
   -6.2083    6.4805    0.0000 C   0  0  0  0  0  0  0  0  0  0  0  0
   -6.6718    5.0539    0.0000 C   0  0  0  0  0  0  0  0  0  0  0  0
   -0.7500    1.2990    0.0000 C   0  0  0  0  0  0  0  0  0  0  0  0
    0.7500    1.2990    0.0000 C   0  0  0  0  0  0  0  0  0  0  0  0
  1  2  1  0
  2  3  2  0
  2  4  1  0
  4  5  1  0
  5  6  2  0
  6  7  1  0
  7  8  2  0
  8  9  1  0
  9 10  2  0
  9 11  1  0
 11 12  1  0
 12 13  2  0
 13 14  1  0
 14 15  2  0
 15 16  1  0
 16 17  1  0
 17 18  2  0
 18 19  1  0
 19 20  2  0
 20 21  1  0
 21 22  2  0
 22 23  1  0
 23 24  2  0
 24 25  1  0
 25 26  2  0
 20 27  1  0
 27 28  2  0
  8 29  1  0
 29 30  2  0
 30  5  1  0
 16 12  1  0
 28 17  1  0
 26 21  1  0
M  END
>  <Title>  (265) 
idAAKEgen7

$$$$

     RDKit          2D

 33 37  0  0  0  0  0  0  0  0999 V2000
    3.0000    0.0000    0.0000 C   0  0  0  0  0  0  0  0  0  0  0  0
    1.5000    0.0000    0.0000 C   0  0  0  0  0  0  0  0  0  0  0  0
    0.7500   -1.2990    0.0000 C   0  0  0  0  0  0  0  0  0  0  0  0
   -0.7500   -1.2990    0.0000 C   0  0  0  0  0  0  0  0  0  0  0  0
   -1.5000    0.0000    0.0000 C   0  0  0  0  0  0  0  0  0  0  0  0
   -3.0000    0.0000    0.0000 C   0  0  0  0  0  0  0  0  0  0  0  0
   -3.8817   -1.2135    0.0000 N   0  0  0  0  0  0  0  0  0  0  0  0
   -5.3083   -0.7500    0.0000 N   0  0  0  0  0  0  0  0  0  0  0  0
   -5.3083    0.7500    0.0000 N   0  0  0  0  0  0  0  0  0  0  0  0
   -3.8817    1.2135    0.0000 N   0  0  0  0  0  0  0  0  0  0  0  0
   -3.4182    2.6401    0.0000 C   0  0  0  0  0  0  0  0  0  0  0  0
   -4.2998    3.8536    0.0000 C   0  0  0  0  0  0  0  0  0  0  0  0
   -3.4182    5.0672    0.0000 C   0  0  0  0  0  0  0  0  0  0  0  0
   -1.9916    4.6036    0.0000 C   0  0  0  0  0  0  0  0  0  0  0  0
   -0.7780    5.4853    0.0000 C   0  0  0  0  0  0  0  0  0  0  0  0
    0.5923    4.8752    0.0000 O   0  0  0  0  0  0  0  0  0  0  0  0
   -0.9348    6.9771    0.0000 N   0  0  0  0  0  0  0  0  0  0  0  0
    0.2787    7.8588    0.0000 C   0  0  0  0  0  0  0  0  0  0  0  0
    1.7053    7.3952    0.0000 N   0  0  0  0  0  0  0  0  0  0  0  0
    2.5870    8.6088    0.0000 N   0  0  0  0  0  0  0  0  0  0  0  0
    1.7053    9.8223    0.0000 N   0  0  0  0  0  0  0  0  0  0  0  0
    0.2787    9.3588    0.0000 N   0  0  0  0  0  0  0  0  0  0  0  0
   -0.9348   10.2405    0.0000 C   0  0  0  0  0  0  0  0  0  0  0  0
   -2.3052    9.6303    0.0000 C   0  0  0  0  0  0  0  0  0  0  0  0
   -3.5187   10.5120    0.0000 C   0  0  0  0  0  0  0  0  0  0  0  0
   -3.3619   12.0038    0.0000 C   0  0  0  0  0  0  0  0  0  0  0  0
   -1.9916   12.6139    0.0000 C   0  0  0  0  0  0  0  0  0  0  0  0
   -0.7780   11.7322    0.0000 C   0  0  0  0  0  0  0  0  0  0  0  0
   -1.9916    3.1036    0.0000 C   0  0  0  0  0  0  0  0  0  0  0  0
   -0.7780    2.2220    0.0000 O   0  0  0  0  0  0  0  0  0  0  0  0
   -0.7500    1.2990    0.0000 C   0  0  0  0  0  0  0  0  0  0  0  0
   -1.5000    2.5981    0.0000 C   0  0  0  0  0  0  0  0  0  0  0  0
    0.7500    1.2990    0.0000 C   0  0  0  0  0  0  0  0  0  0  0  0
  1  2  1  0
  2  3  2  0
  3  4  1  0
  4  5  2  0
  5  6  1  0
  6  7  2  0
  7  8  1  0
  8  9  2  0
  9 10  1  0
 10 11  1  0
 11 12  2  0
 12 13  1  0
 13 14  2  0
 14 15  1  0
 15 16  2  0
 15 17  1  0
 17 18  1  0
 18 19  2  0
 19 20  1  0
 20 21  2  0
 21 22  1  0
 22 23  1  0
 23 24  2  0
 24 25  1  0
 25 26  2  0
 26 27  1  0
 27 28  2  0
 14 29  1  0
 29 30  2  0
  5 31  1  0
 31 32  1  0
 31 33  2  0
 33  2  1  0
 10  6  1  0
 29 11  1  0
 22 18  1  0
 28 23  1  0
M  END
>  <Title>  (266) 
idAAKFgen7

$$$$

     RDKit          2D

 29 31  0  0  0  0  0  0  0  0999 V2000
    3.2286   -0.0000    0.0000 C   0  0  0  0  0  0  0  0  0  0  0  0
    1.7286    0.0000    0.0000 C   0  0  0  0  0  0  0  0  0  0  0  0
    1.0777    1.3515    0.0000 C   0  0  0  0  0  0  0  0  0  0  0  0
   -0.3846    1.6852    0.0000 C   0  0  0  0  0  0  0  0  0  0  0  0
   -1.5574    0.7500    0.0000 C   0  0  0  0  0  0  0  0  0  0  0  0
   -2.9088    1.4008    0.0000 O   0  0  0  0  0  0  0  0  0  0  0  0
   -3.0209    2.8966    0.0000 C   0  0  0  0  0  0  0  0  0  0  0  0
   -4.3724    3.5475    0.0000 C   0  0  0  0  0  0  0  0  0  0  0  0
   -5.6118    2.7025    0.0000 O   0  0  0  0  0  0  0  0  0  0  0  0
   -4.4845    5.0433    0.0000 C   0  0  0  0  0  0  0  0  0  0  0  0
   -5.8359    5.6941    0.0000 C   0  0  0  0  0  0  0  0  0  0  0  0
   -7.1568    4.9833    0.0000 C   0  0  0  0  0  0  0  0  0  0  0  0
   -8.2410    6.0199    0.0000 C   0  0  0  0  0  0  0  0  0  0  0  0
   -7.5902    7.3713    0.0000 C   0  0  0  0  0  0  0  0  0  0  0  0
   -8.3010    8.6922    0.0000 C   0  0  0  0  0  0  0  0  0  0  0  0
   -9.8003    8.7371    0.0000 O   0  0  0  0  0  0  0  0  0  0  0  0
   -7.5125    9.9682    0.0000 N   0  0  0  0  0  0  0  0  0  0  0  0
   -8.2233   11.2891    0.0000 C   0  0  0  0  0  0  0  0  0  0  0  0
   -7.4348   12.5652    0.0000 C   0  0  0  0  0  0  0  0  0  0  0  0
   -8.1456   13.8861    0.0000 C   0  0  0  0  0  0  0  0  0  0  0  0
   -9.6449   13.9309    0.0000 C   0  0  0  0  0  0  0  0  0  0  0  0
  -10.4334   12.6549    0.0000 C   0  0  0  0  0  0  0  0  0  0  0  0
   -9.7226   11.3340    0.0000 C   0  0  0  0  0  0  0  0  0  0  0  0
   -6.1038    7.1700    0.0000 C   0  0  0  0  0  0  0  0  0  0  0  0
   -5.0672    8.2542    0.0000 O   0  0  0  0  0  0  0  0  0  0  0  0
   -1.5574   -0.7500    0.0000 N   0  0  0  0  0  0  0  0  0  0  0  0
   -0.3846   -1.6852    0.0000 C   0  0  0  0  0  0  0  0  0  0  0  0
   -0.7184   -3.1476    0.0000 O   0  0  0  0  0  0  0  0  0  0  0  0
    1.0777   -1.3515    0.0000 N   0  0  0  0  0  0  0  0  0  0  0  0
  1  2  1  0
  2  3  2  0
  3  4  1  0
  4  5  2  0
  5  6  1  0
  6  7  1  0
  7  8  1  0
  8  9  1  0
  8 10  1  0
 10 11  1  0
 11 12  2  0
 12 13  1  0
 13 14  2  0
 14 15  1  0
 15 16  2  0
 15 17  1  0
 17 18  1  0
 18 19  2  0
 19 20  1  0
 20 21  2  0
 21 22  1  0
 22 23  2  0
 14 24  1  0
 24 25  2  0
  5 26  1  0
 26 27  1  0
 27 28  2  0
 27 29  1  0
 29  2  1  0
 24 11  1  0
 23 18  1  0
M  END
>  <Title>  (267) 
idAAKGgen7

$$$$

     RDKit          2D

 29 32  0  0  0  0  0  0  0  0999 V2000
    3.0000    0.0000    0.0000 C   0  0  0  0  0  0  0  0  0  0  0  0
    1.5000    0.0000    0.0000 C   0  0  0  0  0  0  0  0  0  0  0  0
    0.7500   -1.2990    0.0000 C   0  0  0  0  0  0  0  0  0  0  0  0
   -0.7500   -1.2990    0.0000 C   0  0  0  0  0  0  0  0  0  0  0  0
   -1.5000    0.0000    0.0000 C   0  0  0  0  0  0  0  0  0  0  0  0
   -3.0000    0.0000    0.0000 N   0  0  0  0  0  0  0  0  0  0  0  0
   -3.7500    1.2990    0.0000 N   0  0  0  0  0  0  0  0  0  0  0  0
   -5.2500    1.2990    0.0000 N   0  0  0  0  0  0  0  0  0  0  0  0
   -6.0000    0.0000    0.0000 N   0  0  0  0  0  0  0  0  0  0  0  0
   -5.2500   -1.2990    0.0000 N   0  0  0  0  0  0  0  0  0  0  0  0
   -3.7500   -1.2990    0.0000 N   0  0  0  0  0  0  0  0  0  0  0  0
   -3.0000   -2.5981    0.0000 C   0  0  0  0  0  0  0  0  0  0  0  0
   -3.7500   -3.8971    0.0000 C   0  0  0  0  0  0  0  0  0  0  0  0
   -3.0000   -5.1962    0.0000 C   0  0  0  0  0  0  0  0  0  0  0  0
   -1.5000   -5.1962    0.0000 C   0  0  0  0  0  0  0  0  0  0  0  0
   -0.7500   -6.4952    0.0000 C   0  0  0  0  0  0  0  0  0  0  0  0
   -1.5000   -7.7942    0.0000 C   0  0  0  0  0  0  0  0  0  0  0  0
   -3.0000   -7.7942    0.0000 O   0  0  0  0  0  0  0  0  0  0  0  0
   -0.7500   -9.0933    0.0000 N   0  0  0  0  0  0  0  0  0  0  0  0
   -1.5000  -10.3923    0.0000 C   0  0  0  0  0  0  0  0  0  0  0  0
   -3.0000  -10.3923    0.0000 C   0  0  0  0  0  0  0  0  0  0  0  0
   -3.7500  -11.6913    0.0000 C   0  0  0  0  0  0  0  0  0  0  0  0
   -3.0000  -12.9904    0.0000 C   0  0  0  0  0  0  0  0  0  0  0  0
   -1.5000  -12.9904    0.0000 C   0  0  0  0  0  0  0  0  0  0  0  0
   -0.7500  -11.6913    0.0000 C   0  0  0  0  0  0  0  0  0  0  0  0
   -0.7500   -3.8971    0.0000 C   0  0  0  0  0  0  0  0  0  0  0  0
   -1.5000   -2.5981    0.0000 C   0  0  0  0  0  0  0  0  0  0  0  0
   -0.7500    1.2990    0.0000 C   0  0  0  0  0  0  0  0  0  0  0  0
    0.7500    1.2990    0.0000 C   0  0  0  0  0  0  0  0  0  0  0  0
  1  2  1  0
  2  3  2  0
  3  4  1  0
  4  5  2  0
  5  6  1  0
  6  7  1  0
  7  8  2  0
  8  9  1  0
  9 10  2  0
 10 11  1  0
 11 12  1  0
 12 13  2  0
 13 14  1  0
 14 15  2  0
 15 16  1  0
 16 17  1  0
 17 18  2  0
 17 19  1  0
 19 20  1  0
 20 21  2  0
 21 22  1  0
 22 23  2  0
 23 24  1  0
 24 25  2  0
 15 26  1  0
 26 27  2  0
  5 28  1  0
 28 29  2  0
 29  2  1  0
 11  6  1  0
 27 12  1  0
 25 20  1  0
M  END
>  <Title>  (268) 
idAAKHgen7

$$$$

     RDKit          2D

 10 10  0  0  0  0  0  0  0  0999 V2000
    4.2098   -1.2990    0.0000 F   0  0  0  0  0  0  0  0  0  0  0  0
    3.4598   -0.0000    0.0000 C   0  0  0  0  0  0  0  0  0  0  0  0
    1.9598    0.0000    0.0000 C   0  0  0  0  0  0  0  0  0  0  0  0
    1.3858   -1.3858    0.0000 C   0  0  0  0  0  0  0  0  0  0  0  0
   -0.0000   -1.9598    0.0000 C   0  0  0  0  0  0  0  0  0  0  0  0
   -1.3858   -1.3858    0.0000 C   0  0  0  0  0  0  0  0  0  0  0  0
   -1.9598    0.0000    0.0000 C   0  0  0  0  0  0  0  0  0  0  0  0
   -1.3858    1.3858    0.0000 C   0  0  0  0  0  0  0  0  0  0  0  0
    0.0000    1.9598    0.0000 C   0  0  0  0  0  0  0  0  0  0  0  0
    1.3858    1.3858    0.0000 C   0  0  0  0  0  0  0  0  0  0  0  0
  1  2  1  0
  2  3  1  0
  3  4  2  0
  4  5  1  0
  5  6  2  0
  6  7  1  0
  7  8  2  0
  8  9  1  0
  9 10  2  0
 10  3  1  0
M  END
>  <Title>  (269) 
idAAKIgen7

$$$$

     RDKit          2D

 50 56  0  0  0  0  0  0  0  0999 V2000
    3.0000    0.0000    0.0000 C   0  0  0  0  0  0  0  0  0  0  0  0
    1.5000    0.0000    0.0000 C   0  0  0  0  0  0  0  0  0  0  0  0
    0.7500   -1.2990    0.0000 C   0  0  0  0  0  0  0  0  0  0  0  0
   -0.7500   -1.2990    0.0000 C   0  0  0  0  0  0  0  0  0  0  0  0
   -1.5000    0.0000    0.0000 C   0  0  0  0  0  0  0  0  0  0  0  0
   -3.0000    0.0000    0.0000 N   0  0  0  0  0  0  0  0  0  0  0  0
   -3.7500    1.2990    0.0000 C   0  0  0  0  0  0  0  0  0  0  0  0
   -3.0000    2.5981    0.0000 O   0  0  0  0  0  0  0  0  0  0  0  0
   -5.2500    1.2990    0.0000 C   0  0  0  0  0  0  0  0  0  0  0  0
   -6.0000    2.5981    0.0000 C   0  0  0  0  0  0  0  0  0  0  0  0
   -7.5000    2.5981    0.0000 C   0  0  0  0  0  0  0  0  0  0  0  0
   -8.2500    1.2990    0.0000 C   0  0  0  0  0  0  0  0  0  0  0  0
   -9.7500    1.2990    0.0000 C   0  0  0  0  0  0  0  0  0  0  0  0
  -10.5000    0.0000    0.0000 O   0  0  0  0  0  0  0  0  0  0  0  0
  -10.5000    2.5981    0.0000 N   0  0  0  0  0  0  0  0  0  0  0  0
  -12.0000    2.5981    0.0000 C   0  0  0  0  0  0  0  0  0  0  0  0
  -12.8817    1.3846    0.0000 N   0  0  0  0  0  0  0  0  0  0  0  0
  -14.3083    1.8481    0.0000 N   0  0  0  0  0  0  0  0  0  0  0  0
  -14.3083    3.3481    0.0000 N   0  0  0  0  0  0  0  0  0  0  0  0
  -12.8817    3.8116    0.0000 N   0  0  0  0  0  0  0  0  0  0  0  0
  -12.4182    5.2382    0.0000 C   0  0  0  0  0  0  0  0  0  0  0  0
  -10.9509    5.5501    0.0000 C   0  0  0  0  0  0  0  0  0  0  0  0
  -10.4874    6.9766    0.0000 C   0  0  0  0  0  0  0  0  0  0  0  0
  -11.4911    8.0914    0.0000 C   0  0  0  0  0  0  0  0  0  0  0  0
  -12.9583    7.7795    0.0000 C   0  0  0  0  0  0  0  0  0  0  0  0
  -13.4218    6.3529    0.0000 C   0  0  0  0  0  0  0  0  0  0  0  0
   -7.5000    0.0000    0.0000 C   0  0  0  0  0  0  0  0  0  0  0  0
   -6.0000    0.0000    0.0000 C   0  0  0  0  0  0  0  0  0  0  0  0
   -5.2500   -1.2990    0.0000 C   0  0  0  0  0  0  0  0  0  0  0  0
   -3.7582   -1.4558    0.0000 N   0  0  0  0  0  0  0  0  0  0  0  0
   -3.4463   -2.9231    0.0000 N   0  0  0  0  0  0  0  0  0  0  0  0
   -4.7454   -3.6731    0.0000 N   0  0  0  0  0  0  0  0  0  0  0  0
   -5.8601   -2.6694    0.0000 N   0  0  0  0  0  0  0  0  0  0  0  0
   -7.3273   -2.9812    0.0000 C   0  0  0  0  0  0  0  0  0  0  0  0
   -8.3310   -1.8665    0.0000 C   0  0  0  0  0  0  0  0  0  0  0  0
   -9.7982   -2.1784    0.0000 C   0  0  0  0  0  0  0  0  0  0  0  0
  -10.2618   -3.6050    0.0000 C   0  0  0  0  0  0  0  0  0  0  0  0
  -11.7290   -3.9168    0.0000 C   0  0  0  0  0  0  0  0  0  0  0  0
  -12.1925   -5.3434    0.0000 O   0  0  0  0  0  0  0  0  0  0  0  0
  -12.7327   -2.8021    0.0000 N   0  0  0  0  0  0  0  0  0  0  0  0
  -14.1999   -3.1140    0.0000 C   0  0  0  0  0  0  0  0  0  0  0  0
  -15.2036   -1.9993    0.0000 C   0  0  0  0  0  0  0  0  0  0  0  0
  -16.6708   -2.3111    0.0000 C   0  0  0  0  0  0  0  0  0  0  0  0
  -17.1344   -3.7377    0.0000 C   0  0  0  0  0  0  0  0  0  0  0  0
  -16.1307   -4.8524    0.0000 C   0  0  0  0  0  0  0  0  0  0  0  0
  -14.6634   -4.5406    0.0000 C   0  0  0  0  0  0  0  0  0  0  0  0
   -9.2581   -4.7197    0.0000 C   0  0  0  0  0  0  0  0  0  0  0  0
   -7.7909   -4.4078    0.0000 C   0  0  0  0  0  0  0  0  0  0  0  0
   -0.7500    1.2990    0.0000 C   0  0  0  0  0  0  0  0  0  0  0  0
    0.7500    1.2990    0.0000 C   0  0  0  0  0  0  0  0  0  0  0  0
  1  2  1  0
  2  3  2  0
  3  4  1  0
  4  5  2  0
  5  6  1  0
  6  7  1  0
  7  8  2  0
  7  9  1  0
  9 10  1  0
 10 11  1  0
 11 12  2  0
 12 13  1  0
 13 14  2  0
 13 15  1  0
 15 16  1  0
 16 17  2  0
 17 18  1  0
 18 19  2  0
 19 20  1  0
 20 21  1  0
 21 22  2  0
 22 23  1  0
 23 24  2  0
 24 25  1  0
 25 26  2  0
 12 27  1  0
 27 28  2  0
 28 29  1  0
 29 30  2  0
 30 31  1  0
 31 32  2  0
 32 33  1  0
 33 34  1  0
 34 35  2  0
 35 36  1  0
 36 37  2  0
 37 38  1  0
 38 39  2  0
 38 40  1  0
 40 41  1  0
 41 42  2  0
 42 43  1  0
 43 44  2  0
 44 45  1  0
 45 46  2  0
 37 47  1  0
 47 48  2  0
  5 49  1  0
 49 50  2  0
 50  2  1  0
 28  9  1  0
 33 29  1  0
 48 34  1  0
 20 16  1  0
 26 21  1  0
 46 41  1  0
M  END
>  <Title>  (270) 
idAAKJgen7

$$$$

     RDKit          2D

 32 35  0  0  0  0  0  0  0  0999 V2000
    3.0000    0.0000    0.0000 C   0  0  0  0  0  0  0  0  0  0  0  0
    1.5000    0.0000    0.0000 C   0  0  0  0  0  0  0  0  0  0  0  0
    0.7500   -1.2990    0.0000 C   0  0  0  0  0  0  0  0  0  0  0  0
   -0.7500   -1.2990    0.0000 C   0  0  0  0  0  0  0  0  0  0  0  0
   -1.5000    0.0000    0.0000 C   0  0  0  0  0  0  0  0  0  0  0  0
   -3.0000    0.0000    0.0000 N   0  0  0  0  0  0  0  0  0  0  0  0
   -3.7500    1.2990    0.0000 C   0  0  0  0  0  0  0  0  0  0  0  0
   -3.0000    2.5981    0.0000 O   0  0  0  0  0  0  0  0  0  0  0  0
   -5.2500    1.2990    0.0000 C   0  0  0  0  0  0  0  0  0  0  0  0
   -6.1317    0.0855    0.0000 C   0  0  0  0  0  0  0  0  0  0  0  0
   -7.5583    0.5490    0.0000 C   0  0  0  0  0  0  0  0  0  0  0  0
   -7.5583    2.0490    0.0000 C   0  0  0  0  0  0  0  0  0  0  0  0
   -8.7718    2.9307    0.0000 C   0  0  0  0  0  0  0  0  0  0  0  0
  -10.1421    2.3206    0.0000 O   0  0  0  0  0  0  0  0  0  0  0  0
   -8.6150    4.4225    0.0000 N   0  0  0  0  0  0  0  0  0  0  0  0
   -9.8285    5.3042    0.0000 C   0  0  0  0  0  0  0  0  0  0  0  0
  -11.2551    4.8407    0.0000 N   0  0  0  0  0  0  0  0  0  0  0  0
  -12.1368    6.0542    0.0000 N   0  0  0  0  0  0  0  0  0  0  0  0
  -11.2551    7.2677    0.0000 N   0  0  0  0  0  0  0  0  0  0  0  0
   -9.8285    6.8042    0.0000 N   0  0  0  0  0  0  0  0  0  0  0  0
   -8.6150    7.6859    0.0000 C   0  0  0  0  0  0  0  0  0  0  0  0
   -8.6150    9.1859    0.0000 C   0  0  0  0  0  0  0  0  0  0  0  0
   -7.1884    9.6494    0.0000 C   0  0  0  0  0  0  0  0  0  0  0  0
   -6.3067    8.4359    0.0000 C   0  0  0  0  0  0  0  0  0  0  0  0
   -4.8067    8.4359    0.0000 O   0  0  0  0  0  0  0  0  0  0  0  0
   -7.1884    7.2223    0.0000 C   0  0  0  0  0  0  0  0  0  0  0  0
   -6.7249    5.7957    0.0000 O   0  0  0  0  0  0  0  0  0  0  0  0
   -6.1317    2.5126    0.0000 C   0  0  0  0  0  0  0  0  0  0  0  0
   -5.6682    3.9391    0.0000 O   0  0  0  0  0  0  0  0  0  0  0  0
   -0.7500    1.2990    0.0000 C   0  0  0  0  0  0  0  0  0  0  0  0
   -1.5000    2.5981    0.0000 O   0  0  0  0  0  0  0  0  0  0  0  0
    0.7500    1.2990    0.0000 N   0  0  0  0  0  0  0  0  0  0  0  0
  1  2  1  0
  2  3  2  0
  3  4  1  0
  4  5  2  0
  5  6  1  0
  6  7  1  0
  7  8  2  0
  7  9  1  0
  9 10  2  0
 10 11  1  0
 11 12  2  0
 12 13  1  0
 13 14  2  0
 13 15  1  0
 15 16  1  0
 16 17  2  0
 17 18  1  0
 18 19  2  0
 19 20  1  0
 20 21  1  0
 21 22  2  0
 22 23  1  0
 23 24  2  0
 24 25  1  0
 24 26  1  0
 26 27  2  0
 12 28  1  0
 28 29  2  0
  5 30  1  0
 30 31  2  0
 30 32  1  0
 32  2  1  0
 28  9  1  0
 20 16  1  0
 26 21  1  0
M  END
>  <Title>  (271) 
idAAKKgen7

$$$$

     RDKit          2D

 37 41  0  0  0  0  0  0  0  0999 V2000
    3.4598   -0.0000    0.0000 C   0  0  0  0  0  0  0  0  0  0  0  0
    1.9598    0.0000    0.0000 C   0  0  0  0  0  0  0  0  0  0  0  0
    1.3858   -1.3858    0.0000 C   0  0  0  0  0  0  0  0  0  0  0  0
   -0.0000   -1.9598    0.0000 C   0  0  0  0  0  0  0  0  0  0  0  0
   -1.3858   -1.3858    0.0000 C   0  0  0  0  0  0  0  0  0  0  0  0
   -2.4465   -2.4465    0.0000 N   0  0  0  0  0  0  0  0  0  0  0  0
   -3.9280   -2.2118    0.0000 N   0  0  0  0  0  0  0  0  0  0  0  0
   -4.6090   -3.5483    0.0000 C   0  0  0  0  0  0  0  0  0  0  0  0
   -3.5483   -4.6090    0.0000 N   0  0  0  0  0  0  0  0  0  0  0  0
   -2.2118   -3.9280    0.0000 C   0  0  0  0  0  0  0  0  0  0  0  0
   -0.8753   -4.6090    0.0000 N   0  0  0  0  0  0  0  0  0  0  0  0
   -0.7968   -6.1069    0.0000 C   0  0  0  0  0  0  0  0  0  0  0  0
   -2.0548   -6.9239    0.0000 O   0  0  0  0  0  0  0  0  0  0  0  0
    0.5397   -6.7879    0.0000 C   0  0  0  0  0  0  0  0  0  0  0  0
    1.7977   -5.9710    0.0000 C   0  0  0  0  0  0  0  0  0  0  0  0
    3.1342   -6.6520    0.0000 C   0  0  0  0  0  0  0  0  0  0  0  0
    3.2127   -8.1499    0.0000 C   0  0  0  0  0  0  0  0  0  0  0  0
    4.5492   -8.8309    0.0000 C   0  0  0  0  0  0  0  0  0  0  0  0
    1.9547   -8.9669    0.0000 N   0  0  0  0  0  0  0  0  0  0  0  0
    0.6182   -8.2859    0.0000 C   0  0  0  0  0  0  0  0  0  0  0  0
   -0.6398   -9.1028    0.0000 O   0  0  0  0  0  0  0  0  0  0  0  0
   -1.9598    0.0000    0.0000 C   0  0  0  0  0  0  0  0  0  0  0  0
   -3.4598    0.0000    0.0000 C   0  0  0  0  0  0  0  0  0  0  0  0
   -4.2098   -1.2990    0.0000 C   0  0  0  0  0  0  0  0  0  0  0  0
   -5.7098   -1.2990    0.0000 C   0  0  0  0  0  0  0  0  0  0  0  0
   -6.4598   -0.0000    0.0000 C   0  0  0  0  0  0  0  0  0  0  0  0
   -7.9598   -0.0000    0.0000 C   0  0  0  0  0  0  0  0  0  0  0  0
   -8.7098   -1.2990    0.0000 C   0  0  0  0  0  0  0  0  0  0  0  0
  -10.2098   -1.2990    0.0000 C   0  0  0  0  0  0  0  0  0  0  0  0
  -10.9598   -0.0000    0.0000 C   0  0  0  0  0  0  0  0  0  0  0  0
  -10.2098    1.2990    0.0000 C   0  0  0  0  0  0  0  0  0  0  0  0
   -8.7098    1.2990    0.0000 C   0  0  0  0  0  0  0  0  0  0  0  0
   -5.7098    1.2990    0.0000 C   0  0  0  0  0  0  0  0  0  0  0  0
   -4.2098    1.2990    0.0000 C   0  0  0  0  0  0  0  0  0  0  0  0
   -1.3858    1.3858    0.0000 C   0  0  0  0  0  0  0  0  0  0  0  0
    0.0000    1.9598    0.0000 C   0  0  0  0  0  0  0  0  0  0  0  0
    1.3858    1.3858    0.0000 C   0  0  0  0  0  0  0  0  0  0  0  0
  1  2  1  0
  2  3  2  0
  3  4  1  0
  4  5  2  0
  5  6  1  0
  6  7  1  0
  7  8  2  0
  8  9  1  0
  9 10  2  0
 10 11  1  0
 11 12  1  0
 12 13  2  0
 12 14  1  0
 14 15  2  0
 15 16  1  0
 16 17  2  0
 17 18  1  0
 17 19  1  0
 19 20  1  0
 20 21  2  0
  5 22  1  0
 22 23  1  0
 23 24  2  0
 24 25  1  0
 25 26  2  0
 26 27  1  0
 27 28  2  0
 28 29  1  0
 29 30  2  0
 30 31  1  0
 31 32  2  0
 26 33  1  0
 33 34  2  0
 22 35  2  0
 35 36  1  0
 36 37  2  0
 37  2  1  0
 10  6  1  0
 20 14  1  0
 34 23  1  0
 32 27  1  0
M  END
>  <Title>  (272) 
idAAKLgen7

$$$$

     RDKit          2D

 25 28  0  0  0  0  0  0  0  0999 V2000
    3.0000    0.0000    0.0000 C   0  0  0  0  0  0  0  0  0  0  0  0
    1.5000    0.0000    0.0000 C   0  0  0  0  0  0  0  0  0  0  0  0
    0.7500    1.2990    0.0000 C   0  0  0  0  0  0  0  0  0  0  0  0
   -0.7500    1.2990    0.0000 C   0  0  0  0  0  0  0  0  0  0  0  0
   -1.5000    0.0000    0.0000 C   0  0  0  0  0  0  0  0  0  0  0  0
   -3.0000    0.0000    0.0000 C   0  0  0  0  0  0  0  0  0  0  0  0
   -3.8817   -1.2135    0.0000 N   0  0  0  0  0  0  0  0  0  0  0  0
   -5.3083   -0.7500    0.0000 N   0  0  0  0  0  0  0  0  0  0  0  0
   -5.3083    0.7500    0.0000 N   0  0  0  0  0  0  0  0  0  0  0  0
   -3.8817    1.2135    0.0000 N   0  0  0  0  0  0  0  0  0  0  0  0
   -3.4182    2.6401    0.0000 C   0  0  0  0  0  0  0  0  0  0  0  0
   -1.9509    2.9520    0.0000 C   0  0  0  0  0  0  0  0  0  0  0  0
   -1.4874    4.3786    0.0000 C   0  0  0  0  0  0  0  0  0  0  0  0
   -2.4911    5.4933    0.0000 C   0  0  0  0  0  0  0  0  0  0  0  0
   -2.0276    6.9199    0.0000 C   0  0  0  0  0  0  0  0  0  0  0  0
   -0.5604    7.2317    0.0000 C   0  0  0  0  0  0  0  0  0  0  0  0
   -0.0968    8.6583    0.0000 C   0  0  0  0  0  0  0  0  0  0  0  0
   -1.1005    9.7730    0.0000 C   0  0  0  0  0  0  0  0  0  0  0  0
   -2.5677    9.4612    0.0000 C   0  0  0  0  0  0  0  0  0  0  0  0
   -3.0313    8.0346    0.0000 C   0  0  0  0  0  0  0  0  0  0  0  0
   -3.9583    5.1814    0.0000 C   0  0  0  0  0  0  0  0  0  0  0  0
   -4.4218    3.7548    0.0000 C   0  0  0  0  0  0  0  0  0  0  0  0
   -0.7500   -1.2990    0.0000 C   0  0  0  0  0  0  0  0  0  0  0  0
   -1.5000   -2.5981    0.0000 O   0  0  0  0  0  0  0  0  0  0  0  0
    0.7500   -1.2990    0.0000 N   0  0  0  0  0  0  0  0  0  0  0  0
  1  2  1  0
  2  3  2  0
  3  4  1  0
  4  5  2  0
  5  6  1  0
  6  7  2  0
  7  8  1  0
  8  9  2  0
  9 10  1  0
 10 11  1  0
 11 12  2  0
 12 13  1  0
 13 14  2  0
 14 15  1  0
 15 16  2  0
 16 17  1  0
 17 18  2  0
 18 19  1  0
 19 20  2  0
 14 21  1  0
 21 22  1  0
  5 23  1  0
 23 24  2  0
 23 25  1  0
 25  2  1  0
 10  6  1  0
 22 11  1  0
 20 15  1  0
M  END
>  <Title>  (273) 
idAAKMgen7

$$$$

     RDKit          2D

 20 22  0  0  0  0  0  0  0  0999 V2000
    3.0000    0.0000    0.0000 C   0  0  0  0  0  0  0  0  0  0  0  0
    1.5000    0.0000    0.0000 C   0  0  0  0  0  0  0  0  0  0  0  0
    0.7500   -1.2990    0.0000 C   0  0  0  0  0  0  0  0  0  0  0  0
   -0.7500   -1.2990    0.0000 C   0  0  0  0  0  0  0  0  0  0  0  0
   -1.5000    0.0000    0.0000 C   0  0  0  0  0  0  0  0  0  0  0  0
   -3.0000    0.0000    0.0000 C   0  0  0  0  0  0  0  0  0  0  0  0
   -3.8817   -1.2135    0.0000 N   0  0  0  0  0  0  0  0  0  0  0  0
   -5.3083   -0.7500    0.0000 N   0  0  0  0  0  0  0  0  0  0  0  0
   -5.3083    0.7500    0.0000 N   0  0  0  0  0  0  0  0  0  0  0  0
   -3.8817    1.2135    0.0000 N   0  0  0  0  0  0  0  0  0  0  0  0
   -3.4182    2.6401    0.0000 C   0  0  0  0  0  0  0  0  0  0  0  0
   -1.9509    2.9520    0.0000 C   0  0  0  0  0  0  0  0  0  0  0  0
   -1.4874    4.3786    0.0000 C   0  0  0  0  0  0  0  0  0  0  0  0
   -2.4911    5.4933    0.0000 C   0  0  0  0  0  0  0  0  0  0  0  0
   -2.0276    6.9199    0.0000 C   0  0  0  0  0  0  0  0  0  0  0  0
   -3.9583    5.1814    0.0000 C   0  0  0  0  0  0  0  0  0  0  0  0
   -4.9620    6.2961    0.0000 O   0  0  0  0  0  0  0  0  0  0  0  0
   -4.4218    3.7548    0.0000 N   0  0  0  0  0  0  0  0  0  0  0  0
   -0.7500    1.2990    0.0000 N   0  0  0  0  0  0  0  0  0  0  0  0
    0.7500    1.2990    0.0000 N   0  0  0  0  0  0  0  0  0  0  0  0
  1  2  1  0
  2  3  2  0
  3  4  1  0
  4  5  2  0
  5  6  1  0
  6  7  2  0
  7  8  1  0
  8  9  2  0
  9 10  1  0
 10 11  1  0
 11 12  2  0
 12 13  1  0
 13 14  2  0
 14 15  1  0
 14 16  1  0
 16 17  2  0
 16 18  1  0
  5 19  1  0
 19 20  2  0
 20  2  1  0
 10  6  1  0
 18 11  1  0
M  END
>  <Title>  (274) 
idAAKNgen7

$$$$

     RDKit          2D

 16 16  0  0  0  0  0  0  0  0999 V2000
    5.6205   -1.2990    0.0000 C   0  0  0  0  0  0  0  0  0  0  0  0
    4.8705    0.0000    0.0000 O   0  0  0  0  0  0  0  0  0  0  0  0
    3.3705    0.0000    0.0000 C   0  0  0  0  0  0  0  0  0  0  0  0
    3.0367   -1.4624    0.0000 C   0  0  0  0  0  0  0  0  0  0  0  0
    2.1015   -2.6351    0.0000 C   0  0  0  0  0  0  0  0  0  0  0  0
    0.7500   -3.2860    0.0000 C   0  0  0  0  0  0  0  0  0  0  0  0
   -0.7500   -3.2860    0.0000 C   0  0  0  0  0  0  0  0  0  0  0  0
   -2.1015   -2.6351    0.0000 C   0  0  0  0  0  0  0  0  0  0  0  0
   -3.0367   -1.4624    0.0000 C   0  0  0  0  0  0  0  0  0  0  0  0
   -3.3705    0.0000    0.0000 C   0  0  0  0  0  0  0  0  0  0  0  0
   -3.0367    1.4624    0.0000 C   0  0  0  0  0  0  0  0  0  0  0  0
   -2.1015    2.6351    0.0000 C   0  0  0  0  0  0  0  0  0  0  0  0
   -0.7500    3.2860    0.0000 C   0  0  0  0  0  0  0  0  0  0  0  0
    0.7500    3.2860    0.0000 C   0  0  0  0  0  0  0  0  0  0  0  0
    2.1015    2.6351    0.0000 C   0  0  0  0  0  0  0  0  0  0  0  0
    3.0367    1.4624    0.0000 C   0  0  0  0  0  0  0  0  0  0  0  0
  1  2  1  0
  2  3  1  0
  3  4  2  0
  4  5  1  0
  5  6  2  0
  6  7  1  0
  7  8  2  0
  8  9  1  0
  9 10  2  0
 10 11  1  0
 11 12  2  0
 12 13  1  0
 13 14  2  0
 14 15  1  0
 15 16  2  0
 16  3  1  0
M  END
>  <Title>  (275) 
idAAKOgen7

$$$$

     RDKit          2D

 56 64  0  0  0  0  0  0  0  0999 V2000
    3.0000    0.0000    0.0000 C   0  0  0  0  0  0  0  0  0  0  0  0
    1.5000    0.0000    0.0000 C   0  0  0  0  0  0  0  0  0  0  0  0
    0.7500   -1.2990    0.0000 C   0  0  0  0  0  0  0  0  0  0  0  0
   -0.7500   -1.2990    0.0000 C   0  0  0  0  0  0  0  0  0  0  0  0
   -1.5000    0.0000    0.0000 C   0  0  0  0  0  0  0  0  0  0  0  0
   -3.0000    0.0000    0.0000 C   0  0  0  0  0  0  0  0  0  0  0  0
   -3.7500   -1.2990    0.0000 O   0  0  0  0  0  0  0  0  0  0  0  0
   -3.7500    1.2990    0.0000 N   0  0  0  0  0  0  0  0  0  0  0  0
   -5.2500    1.2990    0.0000 C   0  0  0  0  0  0  0  0  0  0  0  0
   -6.1317    0.0855    0.0000 N   0  0  0  0  0  0  0  0  0  0  0  0
   -7.5583    0.5490    0.0000 N   0  0  0  0  0  0  0  0  0  0  0  0
   -7.5583    2.0490    0.0000 N   0  0  0  0  0  0  0  0  0  0  0  0
   -6.1317    2.5126    0.0000 N   0  0  0  0  0  0  0  0  0  0  0  0
   -5.6682    3.9391    0.0000 C   0  0  0  0  0  0  0  0  0  0  0  0
   -4.2009    4.2510    0.0000 C   0  0  0  0  0  0  0  0  0  0  0  0
   -3.7374    5.6776    0.0000 C   0  0  0  0  0  0  0  0  0  0  0  0
   -4.7411    6.7923    0.0000 C   0  0  0  0  0  0  0  0  0  0  0  0
   -4.2776    8.2189    0.0000 C   0  0  0  0  0  0  0  0  0  0  0  0
   -5.1593    9.4324    0.0000 N   0  0  0  0  0  0  0  0  0  0  0  0
   -4.2776   10.6460    0.0000 N   0  0  0  0  0  0  0  0  0  0  0  0
   -2.8510   10.1824    0.0000 N   0  0  0  0  0  0  0  0  0  0  0  0
   -2.8510    8.6824    0.0000 N   0  0  0  0  0  0  0  0  0  0  0  0
   -1.6375    7.8008    0.0000 C   0  0  0  0  0  0  0  0  0  0  0  0
   -1.7943    6.3090    0.0000 C   0  0  0  0  0  0  0  0  0  0  0  0
   -0.5807    5.4273    0.0000 C   0  0  0  0  0  0  0  0  0  0  0  0
    0.7896    6.0374    0.0000 C   0  0  0  0  0  0  0  0  0  0  0  0
    2.0031    5.1557    0.0000 C   0  0  0  0  0  0  0  0  0  0  0  0
    1.8463    3.6639    0.0000 C   0  0  0  0  0  0  0  0  0  0  0  0
    3.0598    2.7823    0.0000 C   0  0  0  0  0  0  0  0  0  0  0  0
    4.4302    3.3924    0.0000 C   0  0  0  0  0  0  0  0  0  0  0  0
    4.5870    4.8841    0.0000 C   0  0  0  0  0  0  0  0  0  0  0  0
    3.3734    5.7658    0.0000 C   0  0  0  0  0  0  0  0  0  0  0  0
    0.9464    7.5292    0.0000 C   0  0  0  0  0  0  0  0  0  0  0  0
   -0.2671    8.4109    0.0000 C   0  0  0  0  0  0  0  0  0  0  0  0
   -6.2083    6.4805    0.0000 C   0  0  0  0  0  0  0  0  0  0  0  0
   -6.6718    5.0539    0.0000 C   0  0  0  0  0  0  0  0  0  0  0  0
   -8.1391    4.7420    0.0000 C   0  0  0  0  0  0  0  0  0  0  0  0
   -8.7492    3.3717    0.0000 N   0  0  0  0  0  0  0  0  0  0  0  0
  -10.2410    3.5285    0.0000 N   0  0  0  0  0  0  0  0  0  0  0  0
  -10.5528    4.9957    0.0000 N   0  0  0  0  0  0  0  0  0  0  0  0
   -9.2538    5.7457    0.0000 N   0  0  0  0  0  0  0  0  0  0  0  0
   -9.0970    7.2375    0.0000 C   0  0  0  0  0  0  0  0  0  0  0  0
   -7.7267    7.8476    0.0000 C   0  0  0  0  0  0  0  0  0  0  0  0
   -7.5699    9.3394    0.0000 C   0  0  0  0  0  0  0  0  0  0  0  0
   -8.7834   10.2210    0.0000 C   0  0  0  0  0  0  0  0  0  0  0  0
   -8.6266   11.7128    0.0000 C   0  0  0  0  0  0  0  0  0  0  0  0
   -7.2563   12.3229    0.0000 C   0  0  0  0  0  0  0  0  0  0  0  0
   -7.0995   13.8147    0.0000 C   0  0  0  0  0  0  0  0  0  0  0  0
   -8.3130   14.6964    0.0000 C   0  0  0  0  0  0  0  0  0  0  0  0
   -9.6833   14.0863    0.0000 C   0  0  0  0  0  0  0  0  0  0  0  0
   -9.8401   12.5945    0.0000 C   0  0  0  0  0  0  0  0  0  0  0  0
  -10.1537    9.6109    0.0000 C   0  0  0  0  0  0  0  0  0  0  0  0
  -10.3105    8.1192    0.0000 C   0  0  0  0  0  0  0  0  0  0  0  0
   -0.7500    1.2990    0.0000 C   0  0  0  0  0  0  0  0  0  0  0  0
   -1.5000    2.5981    0.0000 O   0  0  0  0  0  0  0  0  0  0  0  0
    0.7500    1.2990    0.0000 N   0  0  0  0  0  0  0  0  0  0  0  0
  1  2  1  0
  2  3  2  0
  3  4  1  0
  4  5  2  0
  5  6  1  0
  6  7  2  0
  6  8  1  0
  8  9  1  0
  9 10  2  0
 10 11  1  0
 11 12  2  0
 12 13  1  0
 13 14  1  0
 14 15  2  0
 15 16  1  0
 16 17  2  0
 17 18  1  0
 18 19  2  0
 19 20  1  0
 20 21  2  0
 21 22  1  0
 22 23  1  0
 23 24  2  0
 24 25  1  0
 25 26  2  0
 26 27  1  0
 27 28  2  0
 28 29  1  0
 29 30  2  0
 30 31  1  0
 31 32  2  0
 26 33  1  0
 33 34  2  0
 17 35  1  0
 35 36  2  0
 36 37  1  0
 37 38  2  0
 38 39  1  0
 39 40  2  0
 40 41  1  0
 41 42  1  0
 42 43  2  0
 43 44  1  0
 44 45  2  0
 45 46  1  0
 46 47  2  0
 47 48  1  0
 48 49  2  0
 49 50  1  0
 50 51  2  0
 45 52  1  0
 52 53  2  0
  5 54  1  0
 54 55  2  0
 54 56  1  0
 56  2  1  0
 13  9  1  0
 36 14  1  0
 41 37  1  0
 53 42  1  0
 22 18  1  0
 34 23  1  0
 51 46  1  0
 32 27  1  0
M  END
>  <Title>  (276) 
idAAKPgen7

$$$$

     RDKit          2D

  8  8  0  0  0  0  0  0  0  0999 V2000
    3.7500   -1.2990    0.0000 C   0  0  0  0  0  0  0  0  0  0  0  0
    3.0000    0.0000    0.0000 O   0  0  0  0  0  0  0  0  0  0  0  0
    1.5000    0.0000    0.0000 C   0  0  0  0  0  0  0  0  0  0  0  0
    0.7500   -1.2990    0.0000 C   0  0  0  0  0  0  0  0  0  0  0  0
   -0.7500   -1.2990    0.0000 C   0  0  0  0  0  0  0  0  0  0  0  0
   -1.5000    0.0000    0.0000 C   0  0  0  0  0  0  0  0  0  0  0  0
   -0.7500    1.2990    0.0000 C   0  0  0  0  0  0  0  0  0  0  0  0
    0.7500    1.2990    0.0000 N   0  0  0  0  0  0  0  0  0  0  0  0
  1  2  1  0
  2  3  1  0
  3  4  2  0
  4  5  1  0
  5  6  2  0
  6  7  1  0
  7  8  2  0
  8  3  1  0
M  END
>  <Title>  (277) 
idAAKQgen7

$$$$

     RDKit          2D

 28 31  0  0  0  0  0  0  0  0999 V2000
    3.0000    0.0000    0.0000 C   0  0  0  0  0  0  0  0  0  0  0  0
    1.5000    0.0000    0.0000 C   0  0  0  0  0  0  0  0  0  0  0  0
    0.7500   -1.2990    0.0000 C   0  0  0  0  0  0  0  0  0  0  0  0
   -0.7500   -1.2990    0.0000 C   0  0  0  0  0  0  0  0  0  0  0  0
   -1.5000    0.0000    0.0000 C   0  0  0  0  0  0  0  0  0  0  0  0
   -3.0000    0.0000    0.0000 C   0  0  0  0  0  0  0  0  0  0  0  0
   -3.7500   -1.2990    0.0000 O   0  0  0  0  0  0  0  0  0  0  0  0
   -3.7500    1.2990    0.0000 N   0  0  0  0  0  0  0  0  0  0  0  0
   -5.2500    1.2990    0.0000 C   0  0  0  0  0  0  0  0  0  0  0  0
   -6.1317    0.0855    0.0000 N   0  0  0  0  0  0  0  0  0  0  0  0
   -7.5583    0.5490    0.0000 N   0  0  0  0  0  0  0  0  0  0  0  0
   -7.5583    2.0490    0.0000 N   0  0  0  0  0  0  0  0  0  0  0  0
   -6.1317    2.5126    0.0000 N   0  0  0  0  0  0  0  0  0  0  0  0
   -5.6682    3.9391    0.0000 C   0  0  0  0  0  0  0  0  0  0  0  0
   -4.2009    4.2510    0.0000 C   0  0  0  0  0  0  0  0  0  0  0  0
   -3.7374    5.6776    0.0000 C   0  0  0  0  0  0  0  0  0  0  0  0
   -4.7411    6.7923    0.0000 C   0  0  0  0  0  0  0  0  0  0  0  0
   -4.2776    8.2189    0.0000 C   0  0  0  0  0  0  0  0  0  0  0  0
   -2.8104    8.5308    0.0000 C   0  0  0  0  0  0  0  0  0  0  0  0
   -2.3468    9.9574    0.0000 C   0  0  0  0  0  0  0  0  0  0  0  0
   -3.3505   11.0721    0.0000 C   0  0  0  0  0  0  0  0  0  0  0  0
   -4.8177   10.7602    0.0000 C   0  0  0  0  0  0  0  0  0  0  0  0
   -5.2813    9.3336    0.0000 C   0  0  0  0  0  0  0  0  0  0  0  0
   -6.2083    6.4805    0.0000 C   0  0  0  0  0  0  0  0  0  0  0  0
   -7.2120    7.5952    0.0000 O   0  0  0  0  0  0  0  0  0  0  0  0
   -6.6718    5.0539    0.0000 N   0  0  0  0  0  0  0  0  0  0  0  0
   -0.7500    1.2990    0.0000 N   0  0  0  0  0  0  0  0  0  0  0  0
    0.7500    1.2990    0.0000 C   0  0  0  0  0  0  0  0  0  0  0  0
  1  2  1  0
  2  3  2  0
  3  4  1  0
  4  5  2  0
  5  6  1  0
  6  7  2  0
  6  8  1  0
  8  9  1  0
  9 10  2  0
 10 11  1  0
 11 12  2  0
 12 13  1  0
 13 14  1  0
 14 15  2  0
 15 16  1  0
 16 17  2  0
 17 18  1  0
 18 19  2  0
 19 20  1  0
 20 21  2  0
 21 22  1  0
 22 23  2  0
 17 24  1  0
 24 25  2  0
 24 26  1  0
  5 27  1  0
 27 28  1  0
 28  2  1  0
 13  9  1  0
 26 14  1  0
 23 18  1  0
M  END
>  <Title>  (278) 
idAAKRgen7

$$$$

     RDKit          2D

 24 24  0  0  0  0  0  0  0  0999 V2000
    8.5443   -1.2990    0.0000 C   0  0  0  0  0  0  0  0  0  0  0  0
    7.0443   -1.2990    0.0000 C   0  0  0  0  0  0  0  0  0  0  0  0
    6.2943   -2.5981    0.0000 O   0  0  0  0  0  0  0  0  0  0  0  0
    6.2943    0.0000    0.0000 O   0  0  0  0  0  0  0  0  0  0  0  0
    4.7943    0.0000    0.0000 C   0  0  0  0  0  0  0  0  0  0  0  0
    4.5597   -1.4815    0.0000 C   0  0  0  0  0  0  0  0  0  0  0  0
    3.8787   -2.8180    0.0000 C   0  0  0  0  0  0  0  0  0  0  0  0
    2.8180   -3.8787    0.0000 C   0  0  0  0  0  0  0  0  0  0  0  0
    1.4815   -4.5597    0.0000 C   0  0  0  0  0  0  0  0  0  0  0  0
   -0.0000   -4.7943    0.0000 C   0  0  0  0  0  0  0  0  0  0  0  0
   -1.4815   -4.5597    0.0000 C   0  0  0  0  0  0  0  0  0  0  0  0
   -2.8180   -3.8787    0.0000 C   0  0  0  0  0  0  0  0  0  0  0  0
   -3.8787   -2.8180    0.0000 C   0  0  0  0  0  0  0  0  0  0  0  0
   -4.5597   -1.4815    0.0000 C   0  0  0  0  0  0  0  0  0  0  0  0
   -4.7943    0.0000    0.0000 C   0  0  0  0  0  0  0  0  0  0  0  0
   -4.5597    1.4815    0.0000 C   0  0  0  0  0  0  0  0  0  0  0  0
   -3.8787    2.8180    0.0000 C   0  0  0  0  0  0  0  0  0  0  0  0
   -2.8180    3.8787    0.0000 C   0  0  0  0  0  0  0  0  0  0  0  0
   -1.4815    4.5597    0.0000 C   0  0  0  0  0  0  0  0  0  0  0  0
    0.0000    4.7943    0.0000 C   0  0  0  0  0  0  0  0  0  0  0  0
    1.4815    4.5597    0.0000 C   0  0  0  0  0  0  0  0  0  0  0  0
    2.8180    3.8787    0.0000 C   0  0  0  0  0  0  0  0  0  0  0  0
    3.8787    2.8180    0.0000 C   0  0  0  0  0  0  0  0  0  0  0  0
    4.5597    1.4815    0.0000 C   0  0  0  0  0  0  0  0  0  0  0  0
  1  2  1  0
  2  3  2  0
  2  4  1  0
  4  5  1  0
  5  6  2  0
  6  7  1  0
  7  8  2  0
  8  9  1  0
  9 10  2  0
 10 11  1  0
 11 12  2  0
 12 13  1  0
 13 14  2  0
 14 15  1  0
 15 16  2  0
 16 17  1  0
 17 18  2  0
 18 19  1  0
 19 20  2  0
 20 21  1  0
 21 22  2  0
 22 23  1  0
 23 24  2  0
 24  5  1  0
M  END
>  <Title>  (279) 
idAAKSgen7

$$$$

     RDKit          2D

 55 63  0  0  0  0  0  0  0  0999 V2000
    3.0000    0.0000    0.0000 C   0  0  0  0  0  0  0  0  0  0  0  0
    1.5000    0.0000    0.0000 C   0  0  0  0  0  0  0  0  0  0  0  0
    0.7500   -1.2990    0.0000 C   0  0  0  0  0  0  0  0  0  0  0  0
   -0.7500   -1.2990    0.0000 C   0  0  0  0  0  0  0  0  0  0  0  0
   -1.5000    0.0000    0.0000 C   0  0  0  0  0  0  0  0  0  0  0  0
   -3.0000    0.0000    0.0000 C   0  0  0  0  0  0  0  0  0  0  0  0
   -3.8817   -1.2135    0.0000 N   0  0  0  0  0  0  0  0  0  0  0  0
   -5.3083   -0.7500    0.0000 N   0  0  0  0  0  0  0  0  0  0  0  0
   -5.3083    0.7500    0.0000 N   0  0  0  0  0  0  0  0  0  0  0  0
   -3.8817    1.2135    0.0000 N   0  0  0  0  0  0  0  0  0  0  0  0
   -3.4182    2.6401    0.0000 C   0  0  0  0  0  0  0  0  0  0  0  0
   -1.9509    2.9520    0.0000 C   0  0  0  0  0  0  0  0  0  0  0  0
   -1.4874    4.3786    0.0000 C   0  0  0  0  0  0  0  0  0  0  0  0
   -2.4911    5.4933    0.0000 C   0  0  0  0  0  0  0  0  0  0  0  0
   -2.0276    6.9199    0.0000 C   0  0  0  0  0  0  0  0  0  0  0  0
   -3.0313    8.0346    0.0000 O   0  0  0  0  0  0  0  0  0  0  0  0
   -0.5604    7.2317    0.0000 N   0  0  0  0  0  0  0  0  0  0  0  0
   -0.0968    8.6583    0.0000 C   0  0  0  0  0  0  0  0  0  0  0  0
   -0.9785    9.8718    0.0000 N   0  0  0  0  0  0  0  0  0  0  0  0
   -0.0968   11.0854    0.0000 N   0  0  0  0  0  0  0  0  0  0  0  0
    1.3298   10.6218    0.0000 N   0  0  0  0  0  0  0  0  0  0  0  0
    1.3298    9.1218    0.0000 N   0  0  0  0  0  0  0  0  0  0  0  0
    2.5433    8.2402    0.0000 C   0  0  0  0  0  0  0  0  0  0  0  0
    2.3865    6.7484    0.0000 C   0  0  0  0  0  0  0  0  0  0  0  0
    3.6000    5.8667    0.0000 C   0  0  0  0  0  0  0  0  0  0  0  0
    4.9703    6.4768    0.0000 C   0  0  0  0  0  0  0  0  0  0  0  0
    5.1271    7.9686    0.0000 C   0  0  0  0  0  0  0  0  0  0  0  0
    3.9136    8.8503    0.0000 C   0  0  0  0  0  0  0  0  0  0  0  0
   -3.9583    5.1814    0.0000 C   0  0  0  0  0  0  0  0  0  0  0  0
   -4.4218    3.7548    0.0000 C   0  0  0  0  0  0  0  0  0  0  0  0
   -5.8891    3.4430    0.0000 C   0  0  0  0  0  0  0  0  0  0  0  0
   -6.8928    4.5577    0.0000 C   0  0  0  0  0  0  0  0  0  0  0  0
   -8.3600    4.2458    0.0000 C   0  0  0  0  0  0  0  0  0  0  0  0
   -8.8235    2.8192    0.0000 C   0  0  0  0  0  0  0  0  0  0  0  0
  -10.2907    2.5074    0.0000 C   0  0  0  0  0  0  0  0  0  0  0  0
  -10.9008    1.1370    0.0000 N   0  0  0  0  0  0  0  0  0  0  0  0
  -12.3926    1.2938    0.0000 N   0  0  0  0  0  0  0  0  0  0  0  0
  -12.7045    2.7611    0.0000 N   0  0  0  0  0  0  0  0  0  0  0  0
  -11.4055    3.5111    0.0000 N   0  0  0  0  0  0  0  0  0  0  0  0
  -11.2487    5.0028    0.0000 C   0  0  0  0  0  0  0  0  0  0  0  0
   -9.8783    5.6129    0.0000 C   0  0  0  0  0  0  0  0  0  0  0  0
   -9.7215    7.1047    0.0000 C   0  0  0  0  0  0  0  0  0  0  0  0
  -10.9351    7.9864    0.0000 C   0  0  0  0  0  0  0  0  0  0  0  0
  -10.7783    9.4782    0.0000 C   0  0  0  0  0  0  0  0  0  0  0  0
   -9.4080   10.0883    0.0000 C   0  0  0  0  0  0  0  0  0  0  0  0
   -9.2512   11.5801    0.0000 C   0  0  0  0  0  0  0  0  0  0  0  0
  -10.4647   12.4618    0.0000 C   0  0  0  0  0  0  0  0  0  0  0  0
  -11.8350   11.8516    0.0000 C   0  0  0  0  0  0  0  0  0  0  0  0
  -11.9918   10.3599    0.0000 C   0  0  0  0  0  0  0  0  0  0  0  0
  -12.3054    7.3763    0.0000 C   0  0  0  0  0  0  0  0  0  0  0  0
  -12.4622    5.8845    0.0000 C   0  0  0  0  0  0  0  0  0  0  0  0
   -7.8198    1.7045    0.0000 C   0  0  0  0  0  0  0  0  0  0  0  0
   -6.3526    2.0164    0.0000 C   0  0  0  0  0  0  0  0  0  0  0  0
   -0.7500    1.2990    0.0000 N   0  0  0  0  0  0  0  0  0  0  0  0
    0.7500    1.2990    0.0000 N   0  0  0  0  0  0  0  0  0  0  0  0
  1  2  1  0
  2  3  2  0
  3  4  1  0
  4  5  2  0
  5  6  1  0
  6  7  2  0
  7  8  1  0
  8  9  2  0
  9 10  1  0
 10 11  1  0
 11 12  2  0
 12 13  1  0
 13 14  2  0
 14 15  1  0
 15 16  2  0
 15 17  1  0
 17 18  1  0
 18 19  2  0
 19 20  1  0
 20 21  2  0
 21 22  1  0
 22 23  1  0
 23 24  2  0
 24 25  1  0
 25 26  2  0
 26 27  1  0
 27 28  2  0
 14 29  1  0
 29 30  2  0
 30 31  1  0
 31 32  2  0
 32 33  1  0
 33 34  2  0
 34 35  1  0
 35 36  2  0
 36 37  1  0
 37 38  2  0
 38 39  1  0
 39 40  1  0
 40 41  2  0
 41 42  1  0
 42 43  2  0
 43 44  1  0
 44 45  2  0
 45 46  1  0
 46 47  2  0
 47 48  1  0
 48 49  2  0
 43 50  1  0
 50 51  2  0
 34 52  1  0
 52 53  2  0
  5 54  1  0
 54 55  2  0
 55  2  1  0
 10  6  1  0
 30 11  1  0
 53 31  1  0
 22 18  1  0
 28 23  1  0
 39 35  1  0
 51 40  1  0
 49 44  1  0
M  END
>  <Title>  (280) 
idAAKTgen7

$$$$

     RDKit          2D

 41 46  0  0  0  0  0  0  0  0999 V2000
    5.4483    3.7373    0.0000 C   0  0  0  0  0  0  0  0  0  0  0  0
    5.0601    2.2884    0.0000 C   0  0  0  0  0  0  0  0  0  0  0  0
    3.6112    1.9002    0.0000 C   0  0  0  0  0  0  0  0  0  0  0  0
    3.2229    0.4513    0.0000 C   0  0  0  0  0  0  0  0  0  0  0  0
    4.2836   -0.6094    0.0000 C   0  0  0  0  0  0  0  0  0  0  0  0
    3.8954   -2.0583    0.0000 N   0  0  0  0  0  0  0  0  0  0  0  0
    4.9560   -3.1189    0.0000 N   0  0  0  0  0  0  0  0  0  0  0  0
    4.5678   -4.5678    0.0000 N   0  0  0  0  0  0  0  0  0  0  0  0
    3.1189   -4.9560    0.0000 N   0  0  0  0  0  0  0  0  0  0  0  0
    2.0583   -3.8954    0.0000 N   0  0  0  0  0  0  0  0  0  0  0  0
    2.4465   -2.4465    0.0000 N   0  0  0  0  0  0  0  0  0  0  0  0
    1.3858   -1.3858    0.0000 C   0  0  0  0  0  0  0  0  0  0  0  0
    1.9598    0.0000    0.0000 C   0  0  0  0  0  0  0  0  0  0  0  0
    1.3858    1.3858    0.0000 C   0  0  0  0  0  0  0  0  0  0  0  0
    0.0000    1.9598    0.0000 C   0  0  0  0  0  0  0  0  0  0  0  0
    0.0000    3.4598    0.0000 C   0  0  0  0  0  0  0  0  0  0  0  0
   -1.2135    4.3415    0.0000 N   0  0  0  0  0  0  0  0  0  0  0  0
   -0.7500    5.7681    0.0000 N   0  0  0  0  0  0  0  0  0  0  0  0
    0.7500    5.7681    0.0000 N   0  0  0  0  0  0  0  0  0  0  0  0
    1.2135    4.3415    0.0000 N   0  0  0  0  0  0  0  0  0  0  0  0
    2.6401    3.8780    0.0000 C   0  0  0  0  0  0  0  0  0  0  0  0
    2.9520    2.4108    0.0000 C   0  0  0  0  0  0  0  0  0  0  0  0
    4.3786    1.9472    0.0000 C   0  0  0  0  0  0  0  0  0  0  0  0
    5.4933    2.9509    0.0000 C   0  0  0  0  0  0  0  0  0  0  0  0
    5.1814    4.4182    0.0000 C   0  0  0  0  0  0  0  0  0  0  0  0
    3.7548    4.8817    0.0000 C   0  0  0  0  0  0  0  0  0  0  0  0
   -1.3858    1.3858    0.0000 C   0  0  0  0  0  0  0  0  0  0  0  0
   -2.4465    2.4465    0.0000 C   0  0  0  0  0  0  0  0  0  0  0  0
   -1.9598    0.0000    0.0000 C   0  0  0  0  0  0  0  0  0  0  0  0
   -1.3858   -1.3858    0.0000 C   0  0  0  0  0  0  0  0  0  0  0  0
   -0.0000   -1.9598    0.0000 C   0  0  0  0  0  0  0  0  0  0  0  0
   -0.0000   -3.4598    0.0000 C   0  0  0  0  0  0  0  0  0  0  0  0
    1.2990   -4.2098    0.0000 C   0  0  0  0  0  0  0  0  0  0  0  0
    1.2990   -5.7098    0.0000 C   0  0  0  0  0  0  0  0  0  0  0  0
   -0.0000   -6.4598    0.0000 C   0  0  0  0  0  0  0  0  0  0  0  0
   -0.0000   -7.9598    0.0000 C   0  0  0  0  0  0  0  0  0  0  0  0
   -1.2990   -5.7098    0.0000 C   0  0  0  0  0  0  0  0  0  0  0  0
   -2.5981   -6.4598    0.0000 O   0  0  0  0  0  0  0  0  0  0  0  0
   -1.2990   -4.2098    0.0000 N   0  0  0  0  0  0  0  0  0  0  0  0
    5.7325   -0.2211    0.0000 C   0  0  0  0  0  0  0  0  0  0  0  0
    6.1207    1.2278    0.0000 C   0  0  0  0  0  0  0  0  0  0  0  0
  1  2  1  0
  2  3  2  0
  3  4  1  0
  4  5  2  0
  5  6  1  0
  6  7  1  0
  7  8  2  0
  8  9  1  0
  9 10  2  0
 10 11  1  0
 11 12  1  0
 12 13  2  0
 13 14  1  0
 14 15  2  0
 15 16  1  0
 16 17  2  0
 17 18  1  0
 18 19  2  0
 19 20  1  0
 20 21  1  0
 21 22  2  0
 22 23  1  0
 23 24  2  0
 24 25  1  0
 25 26  2  0
 15 27  1  0
 27 28  1  0
 27 29  2  0
 29 30  1  0
 30 31  2  0
 31 32  1  0
 32 33  2  0
 33 34  1  0
 34 35  2  0
 35 36  1  0
 35 37  1  0
 37 38  2  0
 37 39  1  0
  5 40  1  0
 40 41  2  0
 41  2  1  0
 11  6  1  0
 31 12  1  0
 39 32  1  0
 20 16  1  0
 26 21  1  0
M  END
>  <Title>  (281) 
idAAKUgen7

$$$$

     RDKit          2D

 33 37  0  0  0  0  0  0  0  0999 V2000
    3.7500   -1.2990    0.0000 C   0  0  0  0  0  0  0  0  0  0  0  0
    3.0000    0.0000    0.0000 O   0  0  0  0  0  0  0  0  0  0  0  0
    1.5000    0.0000    0.0000 C   0  0  0  0  0  0  0  0  0  0  0  0
    0.7500   -1.2990    0.0000 C   0  0  0  0  0  0  0  0  0  0  0  0
   -0.7500   -1.2990    0.0000 C   0  0  0  0  0  0  0  0  0  0  0  0
   -1.5000    0.0000    0.0000 C   0  0  0  0  0  0  0  0  0  0  0  0
   -3.0000    0.0000    0.0000 C   0  0  0  0  0  0  0  0  0  0  0  0
   -3.7500   -1.2990    0.0000 O   0  0  0  0  0  0  0  0  0  0  0  0
   -3.7500    1.2990    0.0000 N   0  0  0  0  0  0  0  0  0  0  0  0
   -5.2500    1.2990    0.0000 C   0  0  0  0  0  0  0  0  0  0  0  0
   -6.1317    0.0855    0.0000 N   0  0  0  0  0  0  0  0  0  0  0  0
   -7.5583    0.5490    0.0000 N   0  0  0  0  0  0  0  0  0  0  0  0
   -7.5583    2.0490    0.0000 N   0  0  0  0  0  0  0  0  0  0  0  0
   -6.1317    2.5126    0.0000 N   0  0  0  0  0  0  0  0  0  0  0  0
   -5.6682    3.9391    0.0000 C   0  0  0  0  0  0  0  0  0  0  0  0
   -4.2009    4.2510    0.0000 C   0  0  0  0  0  0  0  0  0  0  0  0
   -3.7374    5.6776    0.0000 C   0  0  0  0  0  0  0  0  0  0  0  0
   -4.7411    6.7923    0.0000 C   0  0  0  0  0  0  0  0  0  0  0  0
   -4.2776    8.2189    0.0000 C   0  0  0  0  0  0  0  0  0  0  0  0
   -5.1593    9.4324    0.0000 N   0  0  0  0  0  0  0  0  0  0  0  0
   -4.2776   10.6460    0.0000 N   0  0  0  0  0  0  0  0  0  0  0  0
   -2.8510   10.1824    0.0000 N   0  0  0  0  0  0  0  0  0  0  0  0
   -2.8510    8.6824    0.0000 N   0  0  0  0  0  0  0  0  0  0  0  0
   -1.6375    7.8008    0.0000 C   0  0  0  0  0  0  0  0  0  0  0  0
   -1.7943    6.3090    0.0000 C   0  0  0  0  0  0  0  0  0  0  0  0
   -0.5807    5.4273    0.0000 C   0  0  0  0  0  0  0  0  0  0  0  0
    0.7896    6.0374    0.0000 C   0  0  0  0  0  0  0  0  0  0  0  0
    0.9464    7.5292    0.0000 C   0  0  0  0  0  0  0  0  0  0  0  0
   -0.2671    8.4109    0.0000 C   0  0  0  0  0  0  0  0  0  0  0  0
   -6.2083    6.4805    0.0000 C   0  0  0  0  0  0  0  0  0  0  0  0
   -6.6718    5.0539    0.0000 C   0  0  0  0  0  0  0  0  0  0  0  0
   -0.7500    1.2990    0.0000 C   0  0  0  0  0  0  0  0  0  0  0  0
    0.7500    1.2990    0.0000 C   0  0  0  0  0  0  0  0  0  0  0  0
  1  2  1  0
  2  3  1  0
  3  4  2  0
  4  5  1  0
  5  6  2  0
  6  7  1  0
  7  8  2  0
  7  9  1  0
  9 10  1  0
 10 11  2  0
 11 12  1  0
 12 13  2  0
 13 14  1  0
 14 15  1  0
 15 16  2  0
 16 17  1  0
 17 18  2  0
 18 19  1  0
 19 20  2  0
 20 21  1  0
 21 22  2  0
 22 23  1  0
 23 24  1  0
 24 25  2  0
 25 26  1  0
 26 27  2  0
 27 28  1  0
 28 29  2  0
 18 30  1  0
 30 31  2  0
  6 32  1  0
 32 33  2  0
 33  3  1  0
 14 10  1  0
 31 15  1  0
 23 19  1  0
 29 24  1  0
M  END
>  <Title>  (282) 
idAAKVgen7

$$$$

     RDKit          2D

 39 43  0  0  0  0  0  0  0  0999 V2000
    5.2500   -1.2990    0.0000 C   0  0  0  0  0  0  0  0  0  0  0  0
    3.7500   -1.2990    0.0000 C   0  0  0  0  0  0  0  0  0  0  0  0
    3.0000    0.0000    0.0000 O   0  0  0  0  0  0  0  0  0  0  0  0
    1.5000    0.0000    0.0000 C   0  0  0  0  0  0  0  0  0  0  0  0
    0.7500   -1.2990    0.0000 C   0  0  0  0  0  0  0  0  0  0  0  0
   -0.7500   -1.2990    0.0000 C   0  0  0  0  0  0  0  0  0  0  0  0
   -1.5000    0.0000    0.0000 C   0  0  0  0  0  0  0  0  0  0  0  0
   -3.0000    0.0000    0.0000 C   0  0  0  0  0  0  0  0  0  0  0  0
   -3.7500   -1.2990    0.0000 O   0  0  0  0  0  0  0  0  0  0  0  0
   -3.7500    1.2990    0.0000 N   0  0  0  0  0  0  0  0  0  0  0  0
   -5.2500    1.2990    0.0000 C   0  0  0  0  0  0  0  0  0  0  0  0
   -6.1317    0.0855    0.0000 N   0  0  0  0  0  0  0  0  0  0  0  0
   -7.5583    0.5490    0.0000 N   0  0  0  0  0  0  0  0  0  0  0  0
   -7.5583    2.0490    0.0000 N   0  0  0  0  0  0  0  0  0  0  0  0
   -6.1317    2.5126    0.0000 N   0  0  0  0  0  0  0  0  0  0  0  0
   -5.6682    3.9391    0.0000 C   0  0  0  0  0  0  0  0  0  0  0  0
   -4.2009    4.2510    0.0000 C   0  0  0  0  0  0  0  0  0  0  0  0
   -3.7374    5.6776    0.0000 C   0  0  0  0  0  0  0  0  0  0  0  0
   -4.7411    6.7923    0.0000 C   0  0  0  0  0  0  0  0  0  0  0  0
   -4.2776    8.2189    0.0000 C   0  0  0  0  0  0  0  0  0  0  0  0
   -2.8104    8.5308    0.0000 C   0  0  0  0  0  0  0  0  0  0  0  0
   -2.3468    9.9574    0.0000 C   0  0  0  0  0  0  0  0  0  0  0  0
   -3.3505   11.0721    0.0000 C   0  0  0  0  0  0  0  0  0  0  0  0
   -2.8870   12.4987    0.0000 C   0  0  0  0  0  0  0  0  0  0  0  0
   -3.8907   13.6134    0.0000 O   0  0  0  0  0  0  0  0  0  0  0  0
   -1.4198   12.8105    0.0000 N   0  0  0  0  0  0  0  0  0  0  0  0
   -0.9563   14.2371    0.0000 C   0  0  0  0  0  0  0  0  0  0  0  0
    0.5110   14.5490    0.0000 C   0  0  0  0  0  0  0  0  0  0  0  0
    0.9745   15.9756    0.0000 C   0  0  0  0  0  0  0  0  0  0  0  0
   -0.0292   17.0903    0.0000 C   0  0  0  0  0  0  0  0  0  0  0  0
   -1.4964   16.7784    0.0000 C   0  0  0  0  0  0  0  0  0  0  0  0
   -1.9599   15.3518    0.0000 C   0  0  0  0  0  0  0  0  0  0  0  0
   -4.8177   10.7602    0.0000 C   0  0  0  0  0  0  0  0  0  0  0  0
   -5.2813    9.3336    0.0000 C   0  0  0  0  0  0  0  0  0  0  0  0
   -6.2083    6.4805    0.0000 C   0  0  0  0  0  0  0  0  0  0  0  0
   -6.6718    5.0539    0.0000 C   0  0  0  0  0  0  0  0  0  0  0  0
   -0.7500    1.2990    0.0000 C   0  0  0  0  0  0  0  0  0  0  0  0
   -1.5000    2.5981    0.0000 O   0  0  0  0  0  0  0  0  0  0  0  0
    0.7500    1.2990    0.0000 N   0  0  0  0  0  0  0  0  0  0  0  0
  1  2  1  0
  2  3  1  0
  3  4  1  0
  4  5  2  0
  5  6  1  0
  6  7  2  0
  7  8  1  0
  8  9  2  0
  8 10  1  0
 10 11  1  0
 11 12  2  0
 12 13  1  0
 13 14  2  0
 14 15  1  0
 15 16  1  0
 16 17  2  0
 17 18  1  0
 18 19  2  0
 19 20  1  0
 20 21  2  0
 21 22  1  0
 22 23  2  0
 23 24  1  0
 24 25  2  0
 24 26  1  0
 26 27  1  0
 27 28  2  0
 28 29  1  0
 29 30  2  0
 30 31  1  0
 31 32  2  0
 23 33  1  0
 33 34  2  0
 19 35  1  0
 35 36  2  0
  7 37  1  0
 37 38  2  0
 37 39  1  0
 39  4  1  0
 15 11  1  0
 36 16  1  0
 34 20  1  0
 32 27  1  0
M  END
>  <Title>  (283) 
idAAKWgen7

$$$$

     RDKit          2D

 38 42  0  0  0  0  0  0  0  0999 V2000
    3.0000    0.0000    0.0000 C   0  0  0  0  0  0  0  0  0  0  0  0
    1.5000    0.0000    0.0000 C   0  0  0  0  0  0  0  0  0  0  0  0
    0.7500    1.2990    0.0000 C   0  0  0  0  0  0  0  0  0  0  0  0
   -0.7500    1.2990    0.0000 C   0  0  0  0  0  0  0  0  0  0  0  0
   -1.5000    0.0000    0.0000 C   0  0  0  0  0  0  0  0  0  0  0  0
   -3.0000    0.0000    0.0000 C   0  0  0  0  0  0  0  0  0  0  0  0
   -3.8817   -1.2135    0.0000 N   0  0  0  0  0  0  0  0  0  0  0  0
   -5.3083   -0.7500    0.0000 N   0  0  0  0  0  0  0  0  0  0  0  0
   -5.3083    0.7500    0.0000 N   0  0  0  0  0  0  0  0  0  0  0  0
   -3.8817    1.2135    0.0000 N   0  0  0  0  0  0  0  0  0  0  0  0
   -3.4182    2.6401    0.0000 C   0  0  0  0  0  0  0  0  0  0  0  0
   -1.9509    2.9520    0.0000 C   0  0  0  0  0  0  0  0  0  0  0  0
   -1.4874    4.3786    0.0000 C   0  0  0  0  0  0  0  0  0  0  0  0
   -2.4911    5.4933    0.0000 C   0  0  0  0  0  0  0  0  0  0  0  0
   -2.0276    6.9199    0.0000 N   0  0  0  0  0  0  0  0  0  0  0  0
   -0.5604    7.2317    0.0000 C   0  0  0  0  0  0  0  0  0  0  0  0
    0.4433    6.1170    0.0000 O   0  0  0  0  0  0  0  0  0  0  0  0
   -0.0968    8.6583    0.0000 C   0  0  0  0  0  0  0  0  0  0  0  0
    1.3704    8.9702    0.0000 C   0  0  0  0  0  0  0  0  0  0  0  0
    1.8339   10.3968    0.0000 C   0  0  0  0  0  0  0  0  0  0  0  0
    0.8302   11.5115    0.0000 C   0  0  0  0  0  0  0  0  0  0  0  0
   -0.6370   11.1996    0.0000 C   0  0  0  0  0  0  0  0  0  0  0  0
   -1.1005    9.7730    0.0000 C   0  0  0  0  0  0  0  0  0  0  0  0
   -3.9583    5.1814    0.0000 C   0  0  0  0  0  0  0  0  0  0  0  0
   -4.4218    3.7548    0.0000 C   0  0  0  0  0  0  0  0  0  0  0  0
   -5.8891    3.4430    0.0000 C   0  0  0  0  0  0  0  0  0  0  0  0
   -6.8928    4.5577    0.0000 C   0  0  0  0  0  0  0  0  0  0  0  0
   -8.3600    4.2458    0.0000 C   0  0  0  0  0  0  0  0  0  0  0  0
   -8.8235    2.8192    0.0000 C   0  0  0  0  0  0  0  0  0  0  0  0
  -10.2907    2.5074    0.0000 C   0  0  0  0  0  0  0  0  0  0  0  0
  -10.7543    1.0808    0.0000 O   0  0  0  0  0  0  0  0  0  0  0  0
  -11.2944    3.6221    0.0000 N   0  0  0  0  0  0  0  0  0  0  0  0
  -12.7617    3.3102    0.0000 O   0  0  0  0  0  0  0  0  0  0  0  0
   -7.8198    1.7045    0.0000 C   0  0  0  0  0  0  0  0  0  0  0  0
   -6.3526    2.0164    0.0000 C   0  0  0  0  0  0  0  0  0  0  0  0
   -0.7500   -1.2990    0.0000 C   0  0  0  0  0  0  0  0  0  0  0  0
   -1.5000   -2.5981    0.0000 O   0  0  0  0  0  0  0  0  0  0  0  0
    0.7500   -1.2990    0.0000 N   0  0  0  0  0  0  0  0  0  0  0  0
  1  2  1  0
  2  3  2  0
  3  4  1  0
  4  5  2  0
  5  6  1  0
  6  7  2  0
  7  8  1  0
  8  9  2  0
  9 10  1  0
 10 11  1  0
 11 12  2  0
 12 13  1  0
 13 14  2  0
 14 15  1  0
 15 16  1  0
 16 17  2  0
 16 18  1  0
 18 19  2  0
 19 20  1  0
 20 21  2  0
 21 22  1  0
 22 23  2  0
 14 24  1  0
 24 25  2  0
 25 26  1  0
 26 27  2  0
 27 28  1  0
 28 29  2  0
 29 30  1  0
 30 31  2  0
 30 32  1  0
 32 33  1  0
 29 34  1  0
 34 35  1  0
  5 36  1  0
 36 37  2  0
 36 38  1  0
 38  2  1  0
 10  6  1  0
 25 11  1  0
 35 26  1  0
 23 18  1  0
M  END
>  <Title>  (284) 
idAAKXgen7

$$$$

     RDKit          2D

 30 33  0  0  0  0  0  0  0  0999 V2000
    3.0000    0.0000    0.0000 C   0  0  0  0  0  0  0  0  0  0  0  0
    1.5000    0.0000    0.0000 C   0  0  0  0  0  0  0  0  0  0  0  0
    0.7500   -1.2990    0.0000 C   0  0  0  0  0  0  0  0  0  0  0  0
   -0.7500   -1.2990    0.0000 C   0  0  0  0  0  0  0  0  0  0  0  0
   -1.5000    0.0000    0.0000 C   0  0  0  0  0  0  0  0  0  0  0  0
   -3.0000    0.0000    0.0000 C   0  0  0  0  0  0  0  0  0  0  0  0
   -3.7500   -1.2990    0.0000 O   0  0  0  0  0  0  0  0  0  0  0  0
   -3.7500    1.2990    0.0000 N   0  0  0  0  0  0  0  0  0  0  0  0
   -5.2500    1.2990    0.0000 C   0  0  0  0  0  0  0  0  0  0  0  0
   -6.1317    0.0855    0.0000 N   0  0  0  0  0  0  0  0  0  0  0  0
   -7.5583    0.5490    0.0000 N   0  0  0  0  0  0  0  0  0  0  0  0
   -7.5583    2.0490    0.0000 N   0  0  0  0  0  0  0  0  0  0  0  0
   -6.1317    2.5126    0.0000 N   0  0  0  0  0  0  0  0  0  0  0  0
   -5.6682    3.9391    0.0000 C   0  0  0  0  0  0  0  0  0  0  0  0
   -4.2009    4.2510    0.0000 C   0  0  0  0  0  0  0  0  0  0  0  0
   -3.7374    5.6776    0.0000 C   0  0  0  0  0  0  0  0  0  0  0  0
   -4.7411    6.7923    0.0000 C   0  0  0  0  0  0  0  0  0  0  0  0
   -4.2776    8.2189    0.0000 C   0  0  0  0  0  0  0  0  0  0  0  0
   -5.2813    9.3336    0.0000 O   0  0  0  0  0  0  0  0  0  0  0  0
   -2.8104    8.5308    0.0000 N   0  0  0  0  0  0  0  0  0  0  0  0
   -2.3468    9.9574    0.0000 C   0  0  0  0  0  0  0  0  0  0  0  0
   -0.8796   10.2692    0.0000 C   0  0  0  0  0  0  0  0  0  0  0  0
   -0.4161   11.6958    0.0000 C   0  0  0  0  0  0  0  0  0  0  0  0
   -1.4198   12.8105    0.0000 C   0  0  0  0  0  0  0  0  0  0  0  0
   -2.8870   12.4987    0.0000 C   0  0  0  0  0  0  0  0  0  0  0  0
   -3.3505   11.0721    0.0000 C   0  0  0  0  0  0  0  0  0  0  0  0
   -6.2083    6.4805    0.0000 C   0  0  0  0  0  0  0  0  0  0  0  0
   -6.6718    5.0539    0.0000 C   0  0  0  0  0  0  0  0  0  0  0  0
   -0.7500    1.2990    0.0000 C   0  0  0  0  0  0  0  0  0  0  0  0
    0.7500    1.2990    0.0000 C   0  0  0  0  0  0  0  0  0  0  0  0
  1  2  1  0
  2  3  2  0
  3  4  1  0
  4  5  2  0
  5  6  1  0
  6  7  2  0
  6  8  1  0
  8  9  1  0
  9 10  2  0
 10 11  1  0
 11 12  2  0
 12 13  1  0
 13 14  1  0
 14 15  2  0
 15 16  1  0
 16 17  2  0
 17 18  1  0
 18 19  2  0
 18 20  1  0
 20 21  1  0
 21 22  2  0
 22 23  1  0
 23 24  2  0
 24 25  1  0
 25 26  2  0
 17 27  1  0
 27 28  2  0
  5 29  1  0
 29 30  2  0
 30  2  1  0
 13  9  1  0
 28 14  1  0
 26 21  1  0
M  END
>  <Title>  (285) 
idAAKYgen7

$$$$

     RDKit          2D

 22 22  0  0  0  0  0  0  0  0999 V2000
    6.5321    0.0000    0.0000 C   0  0  0  0  0  0  0  0  0  0  0  0
    5.0321    0.0000    0.0000 C   0  0  0  0  0  0  0  0  0  0  0  0
    4.8086    1.4832    0.0000 C   0  0  0  0  0  0  0  0  0  0  0  0
    4.1577    2.8347    0.0000 C   0  0  0  0  0  0  0  0  0  0  0  0
    3.1375    3.9343    0.0000 C   0  0  0  0  0  0  0  0  0  0  0  0
    1.8384    4.6843    0.0000 C   0  0  0  0  0  0  0  0  0  0  0  0
    0.3761    5.0181    0.0000 C   0  0  0  0  0  0  0  0  0  0  0  0
   -1.1198    4.9060    0.0000 C   0  0  0  0  0  0  0  0  0  0  0  0
   -2.5161    4.3580    0.0000 C   0  0  0  0  0  0  0  0  0  0  0  0
   -3.6888    3.4227    0.0000 C   0  0  0  0  0  0  0  0  0  0  0  0
   -4.5338    2.1834    0.0000 C   0  0  0  0  0  0  0  0  0  0  0  0
   -4.9759    0.7500    0.0000 C   0  0  0  0  0  0  0  0  0  0  0  0
   -4.9759   -0.7500    0.0000 C   0  0  0  0  0  0  0  0  0  0  0  0
   -4.5338   -2.1834    0.0000 C   0  0  0  0  0  0  0  0  0  0  0  0
   -3.6888   -3.4227    0.0000 C   0  0  0  0  0  0  0  0  0  0  0  0
   -2.5161   -4.3580    0.0000 C   0  0  0  0  0  0  0  0  0  0  0  0
   -1.1198   -4.9060    0.0000 C   0  0  0  0  0  0  0  0  0  0  0  0
    0.3761   -5.0181    0.0000 C   0  0  0  0  0  0  0  0  0  0  0  0
    1.8384   -4.6843    0.0000 C   0  0  0  0  0  0  0  0  0  0  0  0
    3.1375   -3.9343    0.0000 C   0  0  0  0  0  0  0  0  0  0  0  0
    4.1577   -2.8347    0.0000 C   0  0  0  0  0  0  0  0  0  0  0  0
    4.8086   -1.4832    0.0000 C   0  0  0  0  0  0  0  0  0  0  0  0
  1  2  1  0
  2  3  1  0
  3  4  2  0
  4  5  1  0
  5  6  2  0
  6  7  1  0
  7  8  2  0
  8  9  1  0
  9 10  2  0
 10 11  1  0
 11 12  2  0
 12 13  1  0
 13 14  2  0
 14 15  1  0
 15 16  2  0
 16 17  1  0
 17 18  2  0
 18 19  1  0
 19 20  1  0
 20 21  1  0
 21 22  1  0
 22  2  1  0
M  END
>  <Title>  (286) 
idAAKZgen7

$$$$

     RDKit          2D

 40 45  0  0  0  0  0  0  0  0999 V2000
    3.0000    0.0000    0.0000 C   0  0  0  0  0  0  0  0  0  0  0  0
    1.5000    0.0000    0.0000 C   0  0  0  0  0  0  0  0  0  0  0  0
    0.7500   -1.2990    0.0000 C   0  0  0  0  0  0  0  0  0  0  0  0
   -0.7500   -1.2990    0.0000 C   0  0  0  0  0  0  0  0  0  0  0  0
   -1.5000    0.0000    0.0000 C   0  0  0  0  0  0  0  0  0  0  0  0
   -3.0000    0.0000    0.0000 N   0  0  0  0  0  0  0  0  0  0  0  0
   -3.8817   -1.2135    0.0000 C   0  0  0  0  0  0  0  0  0  0  0  0
   -5.3083   -0.7500    0.0000 C   0  0  0  0  0  0  0  0  0  0  0  0
   -5.3083    0.7500    0.0000 C   0  0  0  0  0  0  0  0  0  0  0  0
   -3.8817    1.2135    0.0000 C   0  0  0  0  0  0  0  0  0  0  0  0
   -3.4182    2.6401    0.0000 C   0  0  0  0  0  0  0  0  0  0  0  0
   -1.9509    2.9520    0.0000 C   0  0  0  0  0  0  0  0  0  0  0  0
   -1.4874    4.3786    0.0000 C   0  0  0  0  0  0  0  0  0  0  0  0
   -2.4911    5.4933    0.0000 C   0  0  0  0  0  0  0  0  0  0  0  0
   -2.0276    6.9199    0.0000 C   0  0  0  0  0  0  0  0  0  0  0  0
   -3.0313    8.0346    0.0000 O   0  0  0  0  0  0  0  0  0  0  0  0
   -0.5604    7.2317    0.0000 N   0  0  0  0  0  0  0  0  0  0  0  0
   -0.0968    8.6583    0.0000 C   0  0  0  0  0  0  0  0  0  0  0  0
   -0.9785    9.8718    0.0000 N   0  0  0  0  0  0  0  0  0  0  0  0
   -0.0968   11.0854    0.0000 N   0  0  0  0  0  0  0  0  0  0  0  0
    1.3298   10.6218    0.0000 N   0  0  0  0  0  0  0  0  0  0  0  0
    1.3298    9.1218    0.0000 N   0  0  0  0  0  0  0  0  0  0  0  0
    2.5433    8.2402    0.0000 C   0  0  0  0  0  0  0  0  0  0  0  0
    2.3865    6.7484    0.0000 C   0  0  0  0  0  0  0  0  0  0  0  0
    3.6000    5.8667    0.0000 C   0  0  0  0  0  0  0  0  0  0  0  0
    4.9703    6.4768    0.0000 C   0  0  0  0  0  0  0  0  0  0  0  0
    5.1271    7.9686    0.0000 C   0  0  0  0  0  0  0  0  0  0  0  0
    3.9136    8.8503    0.0000 C   0  0  0  0  0  0  0  0  0  0  0  0
   -3.9583    5.1814    0.0000 C   0  0  0  0  0  0  0  0  0  0  0  0
   -4.4218    3.7548    0.0000 C   0  0  0  0  0  0  0  0  0  0  0  0
   -5.8891    3.4430    0.0000 C   0  0  0  0  0  0  0  0  0  0  0  0
   -6.8928    4.5577    0.0000 C   0  0  0  0  0  0  0  0  0  0  0  0
   -8.3600    4.2458    0.0000 C   0  0  0  0  0  0  0  0  0  0  0  0
   -8.8235    2.8192    0.0000 C   0  0  0  0  0  0  0  0  0  0  0  0
  -10.2907    2.5074    0.0000 C   0  0  0  0  0  0  0  0  0  0  0  0
   -7.8198    1.7045    0.0000 C   0  0  0  0  0  0  0  0  0  0  0  0
   -8.2833    0.2779    0.0000 O   0  0  0  0  0  0  0  0  0  0  0  0
   -6.3526    2.0164    0.0000 N   0  0  0  0  0  0  0  0  0  0  0  0
   -0.7500    1.2990    0.0000 N   0  0  0  0  0  0  0  0  0  0  0  0
    0.7500    1.2990    0.0000 C   0  0  0  0  0  0  0  0  0  0  0  0
  1  2  1  0
  2  3  2  0
  3  4  1  0
  4  5  2  0
  5  6  1  0
  6  7  1  0
  7  8  2  0
  8  9  1  0
  9 10  2  0
 10 11  1  0
 11 12  2  0
 12 13  1  0
 13 14  2  0
 14 15  1  0
 15 16  2  0
 15 17  1  0
 17 18  1  0
 18 19  2  0
 19 20  1  0
 20 21  2  0
 21 22  1  0
 22 23  1  0
 23 24  2  0
 24 25  1  0
 25 26  2  0
 26 27  1  0
 27 28  2  0
 14 29  1  0
 29 30  2  0
 30 31  1  0
 31 32  2  0
 32 33  1  0
 33 34  2  0
 34 35  1  0
 34 36  1  0
 36 37  2  0
 36 38  1  0
  5 39  1  0
 39 40  1  0
 40  2  1  0
 10  6  1  0
 30 11  1  0
 38 31  1  0
 22 18  1  0
 28 23  1  0
M  END
>  <Title>  (287) 
idAALAgen7

$$$$

     RDKit          2D

 29 32  0  0  0  0  0  0  0  0999 V2000
    3.7500   -1.2990    0.0000 C   0  0  0  0  0  0  0  0  0  0  0  0
    3.0000    0.0000    0.0000 O   0  0  0  0  0  0  0  0  0  0  0  0
    1.5000    0.0000    0.0000 C   0  0  0  0  0  0  0  0  0  0  0  0
    0.7500   -1.2990    0.0000 C   0  0  0  0  0  0  0  0  0  0  0  0
   -0.7500   -1.2990    0.0000 C   0  0  0  0  0  0  0  0  0  0  0  0
   -1.5000    0.0000    0.0000 C   0  0  0  0  0  0  0  0  0  0  0  0
   -3.0000    0.0000    0.0000 C   0  0  0  0  0  0  0  0  0  0  0  0
   -3.7500    1.2990    0.0000 C   0  0  0  0  0  0  0  0  0  0  0  0
   -5.2500    1.2990    0.0000 C   0  0  0  0  0  0  0  0  0  0  0  0
   -6.0000    0.0000    0.0000 C   0  0  0  0  0  0  0  0  0  0  0  0
   -7.5000    0.0000    0.0000 N   0  0  0  0  0  0  0  0  0  0  0  0
   -8.2500    1.2990    0.0000 C   0  0  0  0  0  0  0  0  0  0  0  0
   -7.5000    2.5981    0.0000 O   0  0  0  0  0  0  0  0  0  0  0  0
   -9.7500    1.2990    0.0000 C   0  0  0  0  0  0  0  0  0  0  0  0
  -10.5000    2.5981    0.0000 C   0  0  0  0  0  0  0  0  0  0  0  0
  -12.0000    2.5981    0.0000 C   0  0  0  0  0  0  0  0  0  0  0  0
  -12.7500    1.2990    0.0000 C   0  0  0  0  0  0  0  0  0  0  0  0
  -14.2500    1.2990    0.0000 C   0  0  0  0  0  0  0  0  0  0  0  0
  -15.0000    2.5981    0.0000 C   0  0  0  0  0  0  0  0  0  0  0  0
  -16.5000    2.5981    0.0000 C   0  0  0  0  0  0  0  0  0  0  0  0
  -17.2500    1.2990    0.0000 C   0  0  0  0  0  0  0  0  0  0  0  0
  -16.5000    0.0000    0.0000 C   0  0  0  0  0  0  0  0  0  0  0  0
  -15.0000    0.0000    0.0000 C   0  0  0  0  0  0  0  0  0  0  0  0
  -12.0000    0.0000    0.0000 C   0  0  0  0  0  0  0  0  0  0  0  0
  -10.5000    0.0000    0.0000 C   0  0  0  0  0  0  0  0  0  0  0  0
   -5.2500   -1.2990    0.0000 C   0  0  0  0  0  0  0  0  0  0  0  0
   -3.7500   -1.2990    0.0000 C   0  0  0  0  0  0  0  0  0  0  0  0
   -0.7500    1.2990    0.0000 C   0  0  0  0  0  0  0  0  0  0  0  0
    0.7500    1.2990    0.0000 C   0  0  0  0  0  0  0  0  0  0  0  0
  1  2  1  0
  2  3  1  0
  3  4  2  0
  4  5  1  0
  5  6  2  0
  6  7  1  0
  7  8  2  0
  8  9  1  0
  9 10  2  0
 10 11  1  0
 11 12  1  0
 12 13  2  0
 12 14  1  0
 14 15  2  0
 15 16  1  0
 16 17  2  0
 17 18  1  0
 18 19  2  0
 19 20  1  0
 20 21  2  0
 21 22  1  0
 22 23  2  0
 17 24  1  0
 24 25  2  0
 10 26  1  0
 26 27  2  0
  6 28  1  0
 28 29  2  0
 29  3  1  0
 27  7  1  0
 25 14  1  0
 23 18  1  0
M  END
>  <Title>  (288) 
idAALBgen7

$$$$

     RDKit          2D

  9  9  0  0  0  0  0  0  0  0999 V2000
    3.7500   -1.2990    0.0000 C   0  0  0  0  0  0  0  0  0  0  0  0
    3.0000    0.0000    0.0000 O   0  0  0  0  0  0  0  0  0  0  0  0
    1.5000    0.0000    0.0000 C   0  0  0  0  0  0  0  0  0  0  0  0
    0.7500   -1.2990    0.0000 C   0  0  0  0  0  0  0  0  0  0  0  0
   -0.7500   -1.2990    0.0000 C   0  0  0  0  0  0  0  0  0  0  0  0
   -1.5000    0.0000    0.0000 C   0  0  0  0  0  0  0  0  0  0  0  0
   -3.0000    0.0000    0.0000 O   0  0  0  0  0  0  0  0  0  0  0  0
   -0.7500    1.2990    0.0000 C   0  0  0  0  0  0  0  0  0  0  0  0
    0.7500    1.2990    0.0000 C   0  0  0  0  0  0  0  0  0  0  0  0
  1  2  1  0
  2  3  1  0
  3  4  2  0
  4  5  1  0
  5  6  2  0
  6  7  1  0
  6  8  1  0
  8  9  2  0
  9  3  1  0
M  END
>  <Title>  (289) 
idAALCgen7

$$$$

     RDKit          2D

 12 12  0  0  0  0  0  0  0  0999 V2000
    6.0000   -2.5981    0.0000 C   0  0  0  0  0  0  0  0  0  0  0  0
    5.2500   -1.2990    0.0000 C   0  0  0  0  0  0  0  0  0  0  0  0
    6.0000    0.0000    0.0000 O   0  0  0  0  0  0  0  0  0  0  0  0
    3.7500   -1.2990    0.0000 O   0  0  0  0  0  0  0  0  0  0  0  0
    3.0000    0.0000    0.0000 C   0  0  0  0  0  0  0  0  0  0  0  0
    3.7500    1.2990    0.0000 O   0  0  0  0  0  0  0  0  0  0  0  0
    1.5000    0.0000    0.0000 C   0  0  0  0  0  0  0  0  0  0  0  0
    0.7500   -1.2990    0.0000 C   0  0  0  0  0  0  0  0  0  0  0  0
   -0.7500   -1.2990    0.0000 C   0  0  0  0  0  0  0  0  0  0  0  0
   -1.5000    0.0000    0.0000 C   0  0  0  0  0  0  0  0  0  0  0  0
   -0.7500    1.2990    0.0000 C   0  0  0  0  0  0  0  0  0  0  0  0
    0.7500    1.2990    0.0000 C   0  0  0  0  0  0  0  0  0  0  0  0
  1  2  1  0
  2  3  2  0
  2  4  1  0
  4  5  1  0
  5  6  2  0
  5  7  1  0
  7  8  1  0
  8  9  2  0
  9 10  1  0
 10 11  2  0
 11 12  1  0
 12  7  1  0
M  END
>  <Title>  (290) 
idAALDgen7

$$$$

     RDKit          2D

 39 44  0  0  0  0  0  0  0  0999 V2000
    3.0000    0.0000    0.0000 C   0  0  0  0  0  0  0  0  0  0  0  0
    1.5000    0.0000    0.0000 C   0  0  0  0  0  0  0  0  0  0  0  0
    0.7500   -1.2990    0.0000 C   0  0  0  0  0  0  0  0  0  0  0  0
   -0.7500   -1.2990    0.0000 C   0  0  0  0  0  0  0  0  0  0  0  0
   -1.5000    0.0000    0.0000 C   0  0  0  0  0  0  0  0  0  0  0  0
   -3.0000    0.0000    0.0000 C   0  0  0  0  0  0  0  0  0  0  0  0
   -3.8817   -1.2135    0.0000 N   0  0  0  0  0  0  0  0  0  0  0  0
   -5.3083   -0.7500    0.0000 N   0  0  0  0  0  0  0  0  0  0  0  0
   -5.3083    0.7500    0.0000 N   0  0  0  0  0  0  0  0  0  0  0  0
   -3.8817    1.2135    0.0000 N   0  0  0  0  0  0  0  0  0  0  0  0
   -3.4182    2.6401    0.0000 C   0  0  0  0  0  0  0  0  0  0  0  0
   -4.2998    3.8536    0.0000 C   0  0  0  0  0  0  0  0  0  0  0  0
   -3.4182    5.0672    0.0000 C   0  0  0  0  0  0  0  0  0  0  0  0
   -1.9916    4.6036    0.0000 C   0  0  0  0  0  0  0  0  0  0  0  0
   -0.7780    5.4853    0.0000 C   0  0  0  0  0  0  0  0  0  0  0  0
    0.5923    4.8752    0.0000 O   0  0  0  0  0  0  0  0  0  0  0  0
   -0.9348    6.9771    0.0000 N   0  0  0  0  0  0  0  0  0  0  0  0
    0.2787    7.8588    0.0000 C   0  0  0  0  0  0  0  0  0  0  0  0
    1.7053    7.3952    0.0000 N   0  0  0  0  0  0  0  0  0  0  0  0
    2.5870    8.6088    0.0000 N   0  0  0  0  0  0  0  0  0  0  0  0
    1.7053    9.8223    0.0000 N   0  0  0  0  0  0  0  0  0  0  0  0
    0.2787    9.3588    0.0000 N   0  0  0  0  0  0  0  0  0  0  0  0
   -0.9348   10.2405    0.0000 N   0  0  0  0  0  0  0  0  0  0  0  0
   -2.3614    9.7769    0.0000 C   0  0  0  0  0  0  0  0  0  0  0  0
   -3.2431   10.9905    0.0000 C   0  0  0  0  0  0  0  0  0  0  0  0
   -2.3614   12.2040    0.0000 N   0  0  0  0  0  0  0  0  0  0  0  0
   -2.8249   13.6306    0.0000 C   0  0  0  0  0  0  0  0  0  0  0  0
   -4.2922   13.9424    0.0000 C   0  0  0  0  0  0  0  0  0  0  0  0
   -4.7557   15.3690    0.0000 C   0  0  0  0  0  0  0  0  0  0  0  0
   -3.7520   16.4837    0.0000 C   0  0  0  0  0  0  0  0  0  0  0  0
   -2.2848   16.1719    0.0000 C   0  0  0  0  0  0  0  0  0  0  0  0
   -1.8212   14.7453    0.0000 C   0  0  0  0  0  0  0  0  0  0  0  0
   -0.9348   11.7405    0.0000 C   0  0  0  0  0  0  0  0  0  0  0  0
    0.2787   12.6221    0.0000 O   0  0  0  0  0  0  0  0  0  0  0  0
   -1.9916    3.1036    0.0000 C   0  0  0  0  0  0  0  0  0  0  0  0
   -0.7780    2.2220    0.0000 O   0  0  0  0  0  0  0  0  0  0  0  0
   -0.7500    1.2990    0.0000 N   0  0  0  0  0  0  0  0  0  0  0  0
    0.7500    1.2990    0.0000 C   0  0  0  0  0  0  0  0  0  0  0  0
    1.5000    2.5981    0.0000 O   0  0  0  0  0  0  0  0  0  0  0  0
  1  2  1  0
  2  3  2  0
  3  4  1  0
  4  5  2  0
  5  6  1  0
  6  7  2  0
  7  8  1  0
  8  9  2  0
  9 10  1  0
 10 11  1  0
 11 12  2  0
 12 13  1  0
 13 14  2  0
 14 15  1  0
 15 16  2  0
 15 17  1  0
 17 18  1  0
 18 19  2  0
 19 20  1  0
 20 21  2  0
 21 22  1  0
 22 23  1  0
 23 24  1  0
 24 25  1  0
 25 26  1  0
 26 27  1  0
 27 28  2  0
 28 29  1  0
 29 30  2  0
 30 31  1  0
 31 32  2  0
 26 33  1  0
 33 34  2  0
 14 35  1  0
 35 36  2  0
  5 37  1  0
 37 38  1  0
 38 39  2  0
 38  2  1  0
 10  6  1  0
 35 11  1  0
 22 18  1  0
 33 23  1  0
 32 27  1  0
M  END
>  <Title>  (291) 
idAALEgen7

$$$$

     RDKit          2D

 11 11  0  0  0  0  0  0  0  0999 V2000
    3.4598   -0.0000    0.0000 C   0  0  0  0  0  0  0  0  0  0  0  0
    1.9598    0.0000    0.0000 C   0  0  0  0  0  0  0  0  0  0  0  0
    1.3858   -1.3858    0.0000 C   0  0  0  0  0  0  0  0  0  0  0  0
   -0.0000   -1.9598    0.0000 C   0  0  0  0  0  0  0  0  0  0  0  0
   -1.3858   -1.3858    0.0000 C   0  0  0  0  0  0  0  0  0  0  0  0
   -1.9598    0.0000    0.0000 C   0  0  0  0  0  0  0  0  0  0  0  0
   -1.3858    1.3858    0.0000 C   0  0  0  0  0  0  0  0  0  0  0  0
   -2.4465    2.4465    0.0000 O   0  0  0  0  0  0  0  0  0  0  0  0
    0.0000    1.9598    0.0000 C   0  0  0  0  0  0  0  0  0  0  0  0
    0.0000    3.4598    0.0000 C   0  0  0  0  0  0  0  0  0  0  0  0
    1.3858    1.3858    0.0000 C   0  0  0  0  0  0  0  0  0  0  0  0
  1  2  1  0
  2  3  2  0
  3  4  1  0
  4  5  2  0
  5  6  1  0
  6  7  2  0
  7  8  1  0
  7  9  1  0
  9 10  1  0
  9 11  2  0
 11  2  1  0
M  END
>  <Title>  (292) 
idAALFgen7

$$$$

     RDKit          2D

 25 27  0  0  0  0  0  0  0  0999 V2000
    3.0000    0.0000    0.0000 C   0  0  0  0  0  0  0  0  0  0  0  0
    1.5000    0.0000    0.0000 C   0  0  0  0  0  0  0  0  0  0  0  0
    0.7500   -1.2990    0.0000 C   0  0  0  0  0  0  0  0  0  0  0  0
   -0.7500   -1.2990    0.0000 C   0  0  0  0  0  0  0  0  0  0  0  0
   -1.5000    0.0000    0.0000 C   0  0  0  0  0  0  0  0  0  0  0  0
   -3.0000    0.0000    0.0000 C   0  0  0  0  0  0  0  0  0  0  0  0
   -3.7500   -1.2990    0.0000 O   0  0  0  0  0  0  0  0  0  0  0  0
   -3.7500    1.2990    0.0000 N   0  0  0  0  0  0  0  0  0  0  0  0
   -5.2500    1.2990    0.0000 C   0  0  0  0  0  0  0  0  0  0  0  0
   -6.1317    0.0855    0.0000 N   0  0  0  0  0  0  0  0  0  0  0  0
   -7.5583    0.5490    0.0000 N   0  0  0  0  0  0  0  0  0  0  0  0
   -7.5583    2.0490    0.0000 N   0  0  0  0  0  0  0  0  0  0  0  0
   -6.1317    2.5126    0.0000 N   0  0  0  0  0  0  0  0  0  0  0  0
   -5.6682    3.9391    0.0000 C   0  0  0  0  0  0  0  0  0  0  0  0
   -4.2009    4.2510    0.0000 C   0  0  0  0  0  0  0  0  0  0  0  0
   -3.7374    5.6776    0.0000 C   0  0  0  0  0  0  0  0  0  0  0  0
   -4.7411    6.7923    0.0000 C   0  0  0  0  0  0  0  0  0  0  0  0
   -4.2776    8.2189    0.0000 C   0  0  0  0  0  0  0  0  0  0  0  0
   -5.2813    9.3336    0.0000 O   0  0  0  0  0  0  0  0  0  0  0  0
   -2.8104    8.5308    0.0000 N   0  0  0  0  0  0  0  0  0  0  0  0
   -2.3468    9.9574    0.0000 O   0  0  0  0  0  0  0  0  0  0  0  0
   -6.2083    6.4805    0.0000 C   0  0  0  0  0  0  0  0  0  0  0  0
   -6.6718    5.0539    0.0000 C   0  0  0  0  0  0  0  0  0  0  0  0
   -0.7500    1.2990    0.0000 C   0  0  0  0  0  0  0  0  0  0  0  0
    0.7500    1.2990    0.0000 C   0  0  0  0  0  0  0  0  0  0  0  0
  1  2  1  0
  2  3  2  0
  3  4  1  0
  4  5  2  0
  5  6  1  0
  6  7  2  0
  6  8  1  0
  8  9  1  0
  9 10  2  0
 10 11  1  0
 11 12  2  0
 12 13  1  0
 13 14  1  0
 14 15  2  0
 15 16  1  0
 16 17  2  0
 17 18  1  0
 18 19  2  0
 18 20  1  0
 20 21  1  0
 17 22  1  0
 22 23  2  0
  5 24  1  0
 24 25  2  0
 25  2  1  0
 13  9  1  0
 23 14  1  0
M  END
>  <Title>  (293) 
idAALGgen7

$$$$

     RDKit          2D

 39 44  0  0  0  0  0  0  0  0999 V2000
    3.0000    0.0000    0.0000 C   0  0  0  0  0  0  0  0  0  0  0  0
    1.5000    0.0000    0.0000 C   0  0  0  0  0  0  0  0  0  0  0  0
    0.7500   -1.2990    0.0000 C   0  0  0  0  0  0  0  0  0  0  0  0
   -0.7500   -1.2990    0.0000 C   0  0  0  0  0  0  0  0  0  0  0  0
   -1.5000    0.0000    0.0000 C   0  0  0  0  0  0  0  0  0  0  0  0
   -3.0000    0.0000    0.0000 N   0  0  0  0  0  0  0  0  0  0  0  0
   -3.8817   -1.2135    0.0000 C   0  0  0  0  0  0  0  0  0  0  0  0
   -5.3083   -0.7500    0.0000 C   0  0  0  0  0  0  0  0  0  0  0  0
   -5.3083    0.7500    0.0000 C   0  0  0  0  0  0  0  0  0  0  0  0
   -3.8817    1.2135    0.0000 C   0  0  0  0  0  0  0  0  0  0  0  0
   -3.4182    2.6401    0.0000 C   0  0  0  0  0  0  0  0  0  0  0  0
   -1.9509    2.9520    0.0000 C   0  0  0  0  0  0  0  0  0  0  0  0
   -1.4874    4.3786    0.0000 C   0  0  0  0  0  0  0  0  0  0  0  0
   -2.4911    5.4933    0.0000 C   0  0  0  0  0  0  0  0  0  0  0  0
   -2.0276    6.9199    0.0000 N   0  0  0  0  0  0  0  0  0  0  0  0
   -0.5604    7.2317    0.0000 C   0  0  0  0  0  0  0  0  0  0  0  0
    0.4433    6.1170    0.0000 O   0  0  0  0  0  0  0  0  0  0  0  0
   -0.0968    8.6583    0.0000 C   0  0  0  0  0  0  0  0  0  0  0  0
    1.3704    8.9702    0.0000 C   0  0  0  0  0  0  0  0  0  0  0  0
    1.8339   10.3968    0.0000 C   0  0  0  0  0  0  0  0  0  0  0  0
    0.8302   11.5115    0.0000 C   0  0  0  0  0  0  0  0  0  0  0  0
   -0.6370   11.1996    0.0000 C   0  0  0  0  0  0  0  0  0  0  0  0
   -1.1005    9.7730    0.0000 C   0  0  0  0  0  0  0  0  0  0  0  0
   -3.9583    5.1814    0.0000 C   0  0  0  0  0  0  0  0  0  0  0  0
   -4.4218    3.7548    0.0000 C   0  0  0  0  0  0  0  0  0  0  0  0
   -5.8891    3.4430    0.0000 C   0  0  0  0  0  0  0  0  0  0  0  0
   -6.8928    4.5577    0.0000 C   0  0  0  0  0  0  0  0  0  0  0  0
   -8.3600    4.2458    0.0000 C   0  0  0  0  0  0  0  0  0  0  0  0
   -8.8235    2.8192    0.0000 C   0  0  0  0  0  0  0  0  0  0  0  0
  -10.2907    2.5074    0.0000 C   0  0  0  0  0  0  0  0  0  0  0  0
  -11.2944    3.6221    0.0000 C   0  0  0  0  0  0  0  0  0  0  0  0
  -12.7617    3.3102    0.0000 C   0  0  0  0  0  0  0  0  0  0  0  0
  -13.2252    1.8836    0.0000 C   0  0  0  0  0  0  0  0  0  0  0  0
  -12.2215    0.7689    0.0000 C   0  0  0  0  0  0  0  0  0  0  0  0
  -10.7543    1.0808    0.0000 C   0  0  0  0  0  0  0  0  0  0  0  0
   -7.8198    1.7045    0.0000 C   0  0  0  0  0  0  0  0  0  0  0  0
   -6.3526    2.0164    0.0000 C   0  0  0  0  0  0  0  0  0  0  0  0
   -0.7500    1.2990    0.0000 C   0  0  0  0  0  0  0  0  0  0  0  0
    0.7500    1.2990    0.0000 C   0  0  0  0  0  0  0  0  0  0  0  0
  1  2  1  0
  2  3  2  0
  3  4  1  0
  4  5  2  0
  5  6  1  0
  6  7  1  0
  7  8  2  0
  8  9  1  0
  9 10  2  0
 10 11  1  0
 11 12  2  0
 12 13  1  0
 13 14  2  0
 14 15  1  0
 15 16  1  0
 16 17  2  0
 16 18  1  0
 18 19  2  0
 19 20  1  0
 20 21  2  0
 21 22  1  0
 22 23  2  0
 14 24  1  0
 24 25  2  0
 25 26  1  0
 26 27  2  0
 27 28  1  0
 28 29  2  0
 29 30  1  0
 30 31  2  0
 31 32  1  0
 32 33  2  0
 33 34  1  0
 34 35  2  0
 29 36  1  0
 36 37  2  0
  5 38  1  0
 38 39  2  0
 39  2  1  0
 10  6  1  0
 25 11  1  0
 37 26  1  0
 23 18  1  0
 35 30  1  0
M  END
>  <Title>  (294) 
idAALHgen7

$$$$

     RDKit          2D

 46 52  0  0  0  0  0  0  0  0999 V2000
    3.0000    0.0000    0.0000 C   0  0  0  0  0  0  0  0  0  0  0  0
    1.5000    0.0000    0.0000 C   0  0  0  0  0  0  0  0  0  0  0  0
    0.7500   -1.2990    0.0000 C   0  0  0  0  0  0  0  0  0  0  0  0
   -0.7500   -1.2990    0.0000 C   0  0  0  0  0  0  0  0  0  0  0  0
   -1.5000    0.0000    0.0000 C   0  0  0  0  0  0  0  0  0  0  0  0
   -3.0000    0.0000    0.0000 C   0  0  0  0  0  0  0  0  0  0  0  0
   -3.7500   -1.2990    0.0000 O   0  0  0  0  0  0  0  0  0  0  0  0
   -3.7500    1.2990    0.0000 N   0  0  0  0  0  0  0  0  0  0  0  0
   -5.2500    1.2990    0.0000 C   0  0  0  0  0  0  0  0  0  0  0  0
   -6.1317    0.0855    0.0000 N   0  0  0  0  0  0  0  0  0  0  0  0
   -7.5583    0.5490    0.0000 N   0  0  0  0  0  0  0  0  0  0  0  0
   -7.5583    2.0490    0.0000 N   0  0  0  0  0  0  0  0  0  0  0  0
   -6.1317    2.5126    0.0000 N   0  0  0  0  0  0  0  0  0  0  0  0
   -5.6682    3.9391    0.0000 C   0  0  0  0  0  0  0  0  0  0  0  0
   -4.2009    4.2510    0.0000 C   0  0  0  0  0  0  0  0  0  0  0  0
   -3.7374    5.6776    0.0000 C   0  0  0  0  0  0  0  0  0  0  0  0
   -4.7411    6.7923    0.0000 C   0  0  0  0  0  0  0  0  0  0  0  0
   -4.2776    8.2189    0.0000 C   0  0  0  0  0  0  0  0  0  0  0  0
   -5.1593    9.4324    0.0000 N   0  0  0  0  0  0  0  0  0  0  0  0
   -4.2776   10.6460    0.0000 N   0  0  0  0  0  0  0  0  0  0  0  0
   -2.8510   10.1824    0.0000 N   0  0  0  0  0  0  0  0  0  0  0  0
   -2.8510    8.6824    0.0000 N   0  0  0  0  0  0  0  0  0  0  0  0
   -1.6375    7.8008    0.0000 C   0  0  0  0  0  0  0  0  0  0  0  0
   -1.7943    6.3090    0.0000 C   0  0  0  0  0  0  0  0  0  0  0  0
   -0.5807    5.4273    0.0000 C   0  0  0  0  0  0  0  0  0  0  0  0
    0.7896    6.0374    0.0000 C   0  0  0  0  0  0  0  0  0  0  0  0
    2.0031    5.1557    0.0000 C   0  0  0  0  0  0  0  0  0  0  0  0
    1.8463    3.6639    0.0000 C   0  0  0  0  0  0  0  0  0  0  0  0
    3.0598    2.7823    0.0000 C   0  0  0  0  0  0  0  0  0  0  0  0
    4.4302    3.3924    0.0000 C   0  0  0  0  0  0  0  0  0  0  0  0
    4.5870    4.8841    0.0000 C   0  0  0  0  0  0  0  0  0  0  0  0
    3.3734    5.7658    0.0000 C   0  0  0  0  0  0  0  0  0  0  0  0
    0.9464    7.5292    0.0000 C   0  0  0  0  0  0  0  0  0  0  0  0
   -0.2671    8.4109    0.0000 C   0  0  0  0  0  0  0  0  0  0  0  0
   -0.1104    9.9026    0.0000 C   0  0  0  0  0  0  0  0  0  0  0  0
    1.2600   10.5127    0.0000 C   0  0  0  0  0  0  0  0  0  0  0  0
    1.4168   12.0045    0.0000 C   0  0  0  0  0  0  0  0  0  0  0  0
    0.2032   12.8862    0.0000 C   0  0  0  0  0  0  0  0  0  0  0  0
   -1.1671   12.2761    0.0000 C   0  0  0  0  0  0  0  0  0  0  0  0
   -1.3239   10.7843    0.0000 C   0  0  0  0  0  0  0  0  0  0  0  0
   -6.2083    6.4805    0.0000 C   0  0  0  0  0  0  0  0  0  0  0  0
   -7.2120    7.5952    0.0000 O   0  0  0  0  0  0  0  0  0  0  0  0
   -6.6718    5.0539    0.0000 N   0  0  0  0  0  0  0  0  0  0  0  0
   -0.7500    1.2990    0.0000 C   0  0  0  0  0  0  0  0  0  0  0  0
   -1.5000    2.5981    0.0000 O   0  0  0  0  0  0  0  0  0  0  0  0
    0.7500    1.2990    0.0000 N   0  0  0  0  0  0  0  0  0  0  0  0
  1  2  1  0
  2  3  2  0
  3  4  1  0
  4  5  2  0
  5  6  1  0
  6  7  2  0
  6  8  1  0
  8  9  1  0
  9 10  2  0
 10 11  1  0
 11 12  2  0
 12 13  1  0
 13 14  1  0
 14 15  2  0
 15 16  1  0
 16 17  2  0
 17 18  1  0
 18 19  2  0
 19 20  1  0
 20 21  2  0
 21 22  1  0
 22 23  1  0
 23 24  2  0
 24 25  1  0
 25 26  2  0
 26 27  1  0
 27 28  2  0
 28 29  1  0
 29 30  2  0
 30 31  1  0
 31 32  2  0
 26 33  1  0
 33 34  2  0
 34 35  1  0
 35 36  2  0
 36 37  1  0
 37 38  2  0
 38 39  1  0
 39 40  2  0
 17 41  1  0
 41 42  2  0
 41 43  1  0
  5 44  1  0
 44 45  2  0
 44 46  1  0
 46  2  1  0
 13  9  1  0
 43 14  1  0
 22 18  1  0
 34 23  1  0
 40 35  1  0
 32 27  1  0
M  END
>  <Title>  (295) 
idAALIgen7

$$$$

     RDKit          2D

 15 15  0  0  0  0  0  0  0  0999 V2000
    5.3839   -1.2990    0.0000 C   0  0  0  0  0  0  0  0  0  0  0  0
    4.6339    0.0000    0.0000 C   0  0  0  0  0  0  0  0  0  0  0  0
    3.1339    0.0000    0.0000 C   0  0  0  0  0  0  0  0  0  0  0  0
    2.7750    1.4564    0.0000 C   0  0  0  0  0  0  0  0  0  0  0  0
    1.7803    2.5792    0.0000 C   0  0  0  0  0  0  0  0  0  0  0  0
    0.3778    3.1111    0.0000 C   0  0  0  0  0  0  0  0  0  0  0  0
   -1.1113    2.9303    0.0000 C   0  0  0  0  0  0  0  0  0  0  0  0
   -2.3458    2.0782    0.0000 C   0  0  0  0  0  0  0  0  0  0  0  0
   -3.0429    0.7500    0.0000 C   0  0  0  0  0  0  0  0  0  0  0  0
   -3.0429   -0.7500    0.0000 C   0  0  0  0  0  0  0  0  0  0  0  0
   -2.3458   -2.0782    0.0000 C   0  0  0  0  0  0  0  0  0  0  0  0
   -1.1113   -2.9303    0.0000 C   0  0  0  0  0  0  0  0  0  0  0  0
    0.3778   -3.1111    0.0000 C   0  0  0  0  0  0  0  0  0  0  0  0
    1.7803   -2.5792    0.0000 C   0  0  0  0  0  0  0  0  0  0  0  0
    2.7750   -1.4564    0.0000 C   0  0  0  0  0  0  0  0  0  0  0  0
  1  2  1  0
  2  3  1  0
  3  4  1  0
  4  5  1  0
  5  6  1  0
  6  7  1  0
  7  8  1  0
  8  9  1  0
  9 10  1  0
 10 11  1  0
 11 12  1  0
 12 13  1  0
 13 14  1  0
 14 15  1  0
 15  3  1  0
M  END
>  <Title>  (296) 
idAALJgen7

$$$$

     RDKit          2D

 39 43  0  0  0  0  0  0  0  0999 V2000
    3.7500   -1.2990    0.0000 C   0  0  0  0  0  0  0  0  0  0  0  0
    3.0000    0.0000    0.0000 O   0  0  0  0  0  0  0  0  0  0  0  0
    1.5000    0.0000    0.0000 C   0  0  0  0  0  0  0  0  0  0  0  0
    0.7500   -1.2990    0.0000 C   0  0  0  0  0  0  0  0  0  0  0  0
   -0.7500   -1.2990    0.0000 C   0  0  0  0  0  0  0  0  0  0  0  0
   -1.5000    0.0000    0.0000 C   0  0  0  0  0  0  0  0  0  0  0  0
   -3.0000    0.0000    0.0000 C   0  0  0  0  0  0  0  0  0  0  0  0
   -3.7500   -1.2990    0.0000 O   0  0  0  0  0  0  0  0  0  0  0  0
   -3.7500    1.2990    0.0000 N   0  0  0  0  0  0  0  0  0  0  0  0
   -5.2500    1.2990    0.0000 C   0  0  0  0  0  0  0  0  0  0  0  0
   -6.1317    0.0855    0.0000 N   0  0  0  0  0  0  0  0  0  0  0  0
   -7.5583    0.5490    0.0000 N   0  0  0  0  0  0  0  0  0  0  0  0
   -7.5583    2.0490    0.0000 N   0  0  0  0  0  0  0  0  0  0  0  0
   -6.1317    2.5126    0.0000 N   0  0  0  0  0  0  0  0  0  0  0  0
   -5.6682    3.9391    0.0000 C   0  0  0  0  0  0  0  0  0  0  0  0
   -4.2009    4.2510    0.0000 C   0  0  0  0  0  0  0  0  0  0  0  0
   -3.7374    5.6776    0.0000 C   0  0  0  0  0  0  0  0  0  0  0  0
   -4.7411    6.7923    0.0000 C   0  0  0  0  0  0  0  0  0  0  0  0
   -4.2776    8.2189    0.0000 N   0  0  0  0  0  0  0  0  0  0  0  0
   -2.8104    8.5308    0.0000 C   0  0  0  0  0  0  0  0  0  0  0  0
   -1.8067    7.4161    0.0000 O   0  0  0  0  0  0  0  0  0  0  0  0
   -2.3468    9.9574    0.0000 C   0  0  0  0  0  0  0  0  0  0  0  0
   -0.8796   10.2692    0.0000 C   0  0  0  0  0  0  0  0  0  0  0  0
   -0.4161   11.6958    0.0000 C   0  0  0  0  0  0  0  0  0  0  0  0
   -1.4198   12.8105    0.0000 C   0  0  0  0  0  0  0  0  0  0  0  0
   -0.9563   14.2371    0.0000 C   0  0  0  0  0  0  0  0  0  0  0  0
    0.5110   14.5490    0.0000 C   0  0  0  0  0  0  0  0  0  0  0  0
    0.9745   15.9756    0.0000 C   0  0  0  0  0  0  0  0  0  0  0  0
   -0.0292   17.0903    0.0000 C   0  0  0  0  0  0  0  0  0  0  0  0
   -1.4964   16.7784    0.0000 C   0  0  0  0  0  0  0  0  0  0  0  0
   -1.9599   15.3518    0.0000 C   0  0  0  0  0  0  0  0  0  0  0  0
   -2.8870   12.4987    0.0000 C   0  0  0  0  0  0  0  0  0  0  0  0
   -3.3505   11.0721    0.0000 C   0  0  0  0  0  0  0  0  0  0  0  0
   -6.2083    6.4805    0.0000 C   0  0  0  0  0  0  0  0  0  0  0  0
   -7.2120    7.5952    0.0000 O   0  0  0  0  0  0  0  0  0  0  0  0
   -6.6718    5.0539    0.0000 N   0  0  0  0  0  0  0  0  0  0  0  0
   -0.7500    1.2990    0.0000 C   0  0  0  0  0  0  0  0  0  0  0  0
   -1.5000    2.5981    0.0000 O   0  0  0  0  0  0  0  0  0  0  0  0
    0.7500    1.2990    0.0000 N   0  0  0  0  0  0  0  0  0  0  0  0
  1  2  1  0
  2  3  1  0
  3  4  2  0
  4  5  1  0
  5  6  2  0
  6  7  1  0
  7  8  2  0
  7  9  1  0
  9 10  1  0
 10 11  2  0
 11 12  1  0
 12 13  2  0
 13 14  1  0
 14 15  1  0
 15 16  2  0
 16 17  1  0
 17 18  2  0
 18 19  1  0
 19 20  1  0
 20 21  2  0
 20 22  1  0
 22 23  2  0
 23 24  1  0
 24 25  2  0
 25 26  1  0
 26 27  2  0
 27 28  1  0
 28 29  2  0
 29 30  1  0
 30 31  2  0
 25 32  1  0
 32 33  1  0
 18 34  1  0
 34 35  2  0
 34 36  1  0
  6 37  1  0
 37 38  2  0
 37 39  1  0
 39  3  1  0
 14 10  1  0
 36 15  1  0
 33 22  1  0
 31 26  1  0
M  END
>  <Title>  (297) 
idAALKgen7

$$$$

     RDKit          2D

 29 33  0  0  0  0  0  0  0  0999 V2000
   -1.2266    3.6245    0.0000 C   0  0  0  0  0  0  0  0  0  0  0  0
    0.1437    3.0144    0.0000 C   0  0  0  0  0  0  0  0  0  0  0  0
    0.4556    1.5472    0.0000 C   0  0  0  0  0  0  0  0  0  0  0  0
    1.9474    1.3904    0.0000 C   0  0  0  0  0  0  0  0  0  0  0  0
    2.5575    2.7607    0.0000 C   0  0  0  0  0  0  0  0  0  0  0  0
    4.0247    3.0725    0.0000 C   0  0  0  0  0  0  0  0  0  0  0  0
    4.6348    4.4429    0.0000 N   0  0  0  0  0  0  0  0  0  0  0  0
    6.1266    4.2861    0.0000 N   0  0  0  0  0  0  0  0  0  0  0  0
    6.4385    2.8189    0.0000 N   0  0  0  0  0  0  0  0  0  0  0  0
    5.1394    2.0689    0.0000 N   0  0  0  0  0  0  0  0  0  0  0  0
    4.9826    0.5771    0.0000 C   0  0  0  0  0  0  0  0  0  0  0  0
    6.0974   -0.4266    0.0000 C   0  0  0  0  0  0  0  0  0  0  0  0
    5.4873   -1.7969    0.0000 C   0  0  0  0  0  0  0  0  0  0  0  0
    3.9955   -1.6402    0.0000 C   0  0  0  0  0  0  0  0  0  0  0  0
    2.9918   -2.7549    0.0000 C   0  0  0  0  0  0  0  0  0  0  0  0
    1.5000   -2.5981    0.0000 N   0  0  0  0  0  0  0  0  0  0  0  0
    0.8899   -3.9684    0.0000 N   0  0  0  0  0  0  0  0  0  0  0  0
    2.0046   -4.9721    0.0000 N   0  0  0  0  0  0  0  0  0  0  0  0
    3.3037   -4.2221    0.0000 N   0  0  0  0  0  0  0  0  0  0  0  0
    4.6740   -4.8322    0.0000 C   0  0  0  0  0  0  0  0  0  0  0  0
    4.8308   -6.3240    0.0000 C   0  0  0  0  0  0  0  0  0  0  0  0
    6.2011   -6.9341    0.0000 C   0  0  0  0  0  0  0  0  0  0  0  0
    7.4146   -6.0524    0.0000 C   0  0  0  0  0  0  0  0  0  0  0  0
    7.2578   -4.5606    0.0000 C   0  0  0  0  0  0  0  0  0  0  0  0
    5.8875   -3.9505    0.0000 C   0  0  0  0  0  0  0  0  0  0  0  0
    3.6836   -0.1729    0.0000 C   0  0  0  0  0  0  0  0  0  0  0  0
    2.3133    0.4372    0.0000 O   0  0  0  0  0  0  0  0  0  0  0  0
    1.4428    3.7644    0.0000 C   0  0  0  0  0  0  0  0  0  0  0  0
    1.5996    5.2562    0.0000 O   0  0  0  0  0  0  0  0  0  0  0  0
  1  2  1  0
  2  3  2  0
  3  4  1  0
  4  5  2  0
  5  6  1  0
  6  7  2  0
  7  8  1  0
  8  9  2  0
  9 10  1  0
 10 11  1  0
 11 12  2  0
 12 13  1  0
 13 14  2  0
 14 15  1  0
 15 16  2  0
 16 17  1  0
 17 18  2  0
 18 19  1  0
 19 20  1  0
 20 21  2  0
 21 22  1  0
 22 23  2  0
 23 24  1  0
 24 25  2  0
 14 26  1  0
 26 27  2  0
  5 28  1  0
 28 29  2  0
 28  2  1  0
 10  6  1  0
 26 11  1  0
 19 15  1  0
 25 20  1  0
M  END
>  <Title>  (298) 
idAALLgen7

$$$$

     RDKit          2D

 23 25  0  0  0  0  0  0  0  0999 V2000
    3.0000    0.0000    0.0000 C   0  0  0  0  0  0  0  0  0  0  0  0
    1.5000    0.0000    0.0000 C   0  0  0  0  0  0  0  0  0  0  0  0
    0.7500   -1.2990    0.0000 C   0  0  0  0  0  0  0  0  0  0  0  0
   -0.7500   -1.2990    0.0000 C   0  0  0  0  0  0  0  0  0  0  0  0
   -1.5000    0.0000    0.0000 C   0  0  0  0  0  0  0  0  0  0  0  0
   -3.0000    0.0000    0.0000 C   0  0  0  0  0  0  0  0  0  0  0  0
   -3.7500   -1.2990    0.0000 O   0  0  0  0  0  0  0  0  0  0  0  0
   -3.7500    1.2990    0.0000 N   0  0  0  0  0  0  0  0  0  0  0  0
   -5.2500    1.2990    0.0000 C   0  0  0  0  0  0  0  0  0  0  0  0
   -6.1317    0.0855    0.0000 N   0  0  0  0  0  0  0  0  0  0  0  0
   -7.5583    0.5490    0.0000 N   0  0  0  0  0  0  0  0  0  0  0  0
   -7.5583    2.0490    0.0000 N   0  0  0  0  0  0  0  0  0  0  0  0
   -6.1317    2.5126    0.0000 N   0  0  0  0  0  0  0  0  0  0  0  0
   -5.6682    3.9391    0.0000 C   0  0  0  0  0  0  0  0  0  0  0  0
   -4.2009    4.2510    0.0000 C   0  0  0  0  0  0  0  0  0  0  0  0
   -3.7374    5.6776    0.0000 C   0  0  0  0  0  0  0  0  0  0  0  0
   -4.7411    6.7923    0.0000 C   0  0  0  0  0  0  0  0  0  0  0  0
   -4.2776    8.2189    0.0000 C   0  0  0  0  0  0  0  0  0  0  0  0
   -6.2083    6.4805    0.0000 C   0  0  0  0  0  0  0  0  0  0  0  0
   -7.2120    7.5952    0.0000 O   0  0  0  0  0  0  0  0  0  0  0  0
   -6.6718    5.0539    0.0000 N   0  0  0  0  0  0  0  0  0  0  0  0
   -0.7500    1.2990    0.0000 N   0  0  0  0  0  0  0  0  0  0  0  0
    0.7500    1.2990    0.0000 N   0  0  0  0  0  0  0  0  0  0  0  0
  1  2  1  0
  2  3  2  0
  3  4  1  0
  4  5  2  0
  5  6  1  0
  6  7  2  0
  6  8  1  0
  8  9  1  0
  9 10  2  0
 10 11  1  0
 11 12  2  0
 12 13  1  0
 13 14  1  0
 14 15  2  0
 15 16  1  0
 16 17  2  0
 17 18  1  0
 17 19  1  0
 19 20  2  0
 19 21  1  0
  5 22  1  0
 22 23  1  0
 23  2  1  0
 13  9  1  0
 21 14  1  0
M  END
>  <Title>  (299) 
idAALMgen7

$$$$

     RDKit          2D

 13 13  0  0  0  0  0  0  0  0999 V2000
    3.9271    0.0000    0.0000 C   0  0  0  0  0  0  0  0  0  0  0  0
    2.4271    0.0000    0.0000 C   0  0  0  0  0  0  0  0  0  0  0  0
    1.9635   -1.4266    0.0000 C   0  0  0  0  0  0  0  0  0  0  0  0
    0.7500   -2.3083    0.0000 C   0  0  0  0  0  0  0  0  0  0  0  0
   -0.7500   -2.3083    0.0000 C   0  0  0  0  0  0  0  0  0  0  0  0
   -1.9635   -1.4266    0.0000 C   0  0  0  0  0  0  0  0  0  0  0  0
   -2.4271    0.0000    0.0000 C   0  0  0  0  0  0  0  0  0  0  0  0
   -3.9271    0.0000    0.0000 O   0  0  0  0  0  0  0  0  0  0  0  0
   -1.9635    1.4266    0.0000 C   0  0  0  0  0  0  0  0  0  0  0  0
   -3.1771    2.3083    0.0000 C   0  0  0  0  0  0  0  0  0  0  0  0
   -0.7500    2.3083    0.0000 C   0  0  0  0  0  0  0  0  0  0  0  0
    0.7500    2.3083    0.0000 C   0  0  0  0  0  0  0  0  0  0  0  0
    1.9635    1.4266    0.0000 C   0  0  0  0  0  0  0  0  0  0  0  0
  1  2  1  0
  2  3  2  0
  3  4  1  0
  4  5  2  0
  5  6  1  0
  6  7  2  0
  7  8  1  0
  7  9  1  0
  9 10  1  0
  9 11  2  0
 11 12  1  0
 12 13  2  0
 13  2  1  0
M  END
>  <Title>  (300) 
idAALNgen7

$$$$

     RDKit          2D

 33 37  0  0  0  0  0  0  0  0999 V2000
    3.7500   -1.2990    0.0000 C   0  0  0  0  0  0  0  0  0  0  0  0
    3.0000    0.0000    0.0000 O   0  0  0  0  0  0  0  0  0  0  0  0
    1.5000    0.0000    0.0000 C   0  0  0  0  0  0  0  0  0  0  0  0
    0.7500   -1.2990    0.0000 C   0  0  0  0  0  0  0  0  0  0  0  0
   -0.7500   -1.2990    0.0000 C   0  0  0  0  0  0  0  0  0  0  0  0
   -1.5000    0.0000    0.0000 C   0  0  0  0  0  0  0  0  0  0  0  0
   -3.0000    0.0000    0.0000 C   0  0  0  0  0  0  0  0  0  0  0  0
   -3.8817   -1.2135    0.0000 N   0  0  0  0  0  0  0  0  0  0  0  0
   -5.3083   -0.7500    0.0000 N   0  0  0  0  0  0  0  0  0  0  0  0
   -5.3083    0.7500    0.0000 N   0  0  0  0  0  0  0  0  0  0  0  0
   -3.8817    1.2135    0.0000 N   0  0  0  0  0  0  0  0  0  0  0  0
   -3.4182    2.6401    0.0000 C   0  0  0  0  0  0  0  0  0  0  0  0
   -1.9509    2.9520    0.0000 C   0  0  0  0  0  0  0  0  0  0  0  0
   -1.4874    4.3786    0.0000 C   0  0  0  0  0  0  0  0  0  0  0  0
   -2.4911    5.4933    0.0000 C   0  0  0  0  0  0  0  0  0  0  0  0
   -2.0276    6.9199    0.0000 C   0  0  0  0  0  0  0  0  0  0  0  0
   -3.0313    8.0346    0.0000 O   0  0  0  0  0  0  0  0  0  0  0  0
   -0.5604    7.2317    0.0000 N   0  0  0  0  0  0  0  0  0  0  0  0
   -0.0968    8.6583    0.0000 C   0  0  0  0  0  0  0  0  0  0  0  0
   -0.9785    9.8718    0.0000 N   0  0  0  0  0  0  0  0  0  0  0  0
   -0.0968   11.0854    0.0000 C   0  0  0  0  0  0  0  0  0  0  0  0
    1.3298   10.6218    0.0000 N   0  0  0  0  0  0  0  0  0  0  0  0
    1.3298    9.1218    0.0000 N   0  0  0  0  0  0  0  0  0  0  0  0
    2.5433    8.2402    0.0000 C   0  0  0  0  0  0  0  0  0  0  0  0
    3.9699    8.7037    0.0000 C   0  0  0  0  0  0  0  0  0  0  0  0
    4.8515    7.4902    0.0000 C   0  0  0  0  0  0  0  0  0  0  0  0
    3.9699    6.2766    0.0000 C   0  0  0  0  0  0  0  0  0  0  0  0
    2.5433    6.7402    0.0000 C   0  0  0  0  0  0  0  0  0  0  0  0
   -3.9583    5.1814    0.0000 C   0  0  0  0  0  0  0  0  0  0  0  0
   -4.4218    3.7548    0.0000 C   0  0  0  0  0  0  0  0  0  0  0  0
   -0.7500    1.2990    0.0000 C   0  0  0  0  0  0  0  0  0  0  0  0
    0.7500    1.2990    0.0000 C   0  0  0  0  0  0  0  0  0  0  0  0
    1.5000    2.5981    0.0000 O   0  0  0  0  0  0  0  0  0  0  0  0
  1  2  1  0
  2  3  1  0
  3  4  2  0
  4  5  1  0
  5  6  2  0
  6  7  1  0
  7  8  2  0
  8  9  1  0
  9 10  2  0
 10 11  1  0
 11 12  1  0
 12 13  2  0
 13 14  1  0
 14 15  2  0
 15 16  1  0
 16 17  2  0
 16 18  1  0
 18 19  1  0
 19 20  2  0
 20 21  1  0
 21 22  2  0
 22 23  1  0
 23 24  1  0
 24 25  1  0
 25 26  2  0
 26 27  1  0
 27 28  2  0
 15 29  1  0
 29 30  2  0
  6 31  1  0
 31 32  2  0
 32 33  1  0
 32  3  1  0
 11  7  1  0
 30 12  1  0
 23 19  1  0
 28 24  1  0
M  END
>  <Title>  (301) 
idAALOgen7

$$$$

     RDKit          2D

 18 19  0  0  0  0  0  0  0  0999 V2000
    3.0000    0.0000    0.0000 C   0  0  0  0  0  0  0  0  0  0  0  0
    1.5000    0.0000    0.0000 C   0  0  0  0  0  0  0  0  0  0  0  0
    0.7500   -1.2990    0.0000 C   0  0  0  0  0  0  0  0  0  0  0  0
   -0.7500   -1.2990    0.0000 C   0  0  0  0  0  0  0  0  0  0  0  0
   -1.5000    0.0000    0.0000 C   0  0  0  0  0  0  0  0  0  0  0  0
   -3.0000    0.0000    0.0000 N   0  0  0  0  0  0  0  0  0  0  0  0
   -3.7500    1.2990    0.0000 C   0  0  0  0  0  0  0  0  0  0  0  0
   -5.2500    1.2990    0.0000 C   0  0  0  0  0  0  0  0  0  0  0  0
   -6.0000    0.0000    0.0000 C   0  0  0  0  0  0  0  0  0  0  0  0
   -7.5000    0.0000    0.0000 C   0  0  0  0  0  0  0  0  0  0  0  0
   -8.2500   -1.2990    0.0000 O   0  0  0  0  0  0  0  0  0  0  0  0
   -8.2500    1.2990    0.0000 N   0  0  0  0  0  0  0  0  0  0  0  0
   -9.7500    1.2990    0.0000 O   0  0  0  0  0  0  0  0  0  0  0  0
   -5.2500   -1.2990    0.0000 C   0  0  0  0  0  0  0  0  0  0  0  0
   -3.7500   -1.2990    0.0000 C   0  0  0  0  0  0  0  0  0  0  0  0
   -0.7500    1.2990    0.0000 C   0  0  0  0  0  0  0  0  0  0  0  0
   -1.5000    2.5981    0.0000 O   0  0  0  0  0  0  0  0  0  0  0  0
    0.7500    1.2990    0.0000 N   0  0  0  0  0  0  0  0  0  0  0  0
  1  2  1  0
  2  3  2  0
  3  4  1  0
  4  5  2  0
  5  6  1  0
  6  7  1  0
  7  8  1  0
  8  9  2  0
  9 10  1  0
 10 11  2  0
 10 12  1  0
 12 13  1  0
  9 14  1  0
 14 15  1  0
  5 16  1  0
 16 17  2  0
 16 18  1  0
 18  2  1  0
 15  6  1  0
M  END
>  <Title>  (302) 
idAALPgen7

$$$$

     RDKit          2D

 12 13  0  0  0  0  0  0  0  0999 V2000
    0.7500   -6.4952    0.0000 C   0  0  0  0  0  0  0  0  0  0  0  0
    1.5000   -5.1962    0.0000 O   0  0  0  0  0  0  0  0  0  0  0  0
    0.7500   -3.8971    0.0000 C   0  0  0  0  0  0  0  0  0  0  0  0
   -0.7500   -3.8971    0.0000 C   0  0  0  0  0  0  0  0  0  0  0  0
   -1.5000   -2.5981    0.0000 C   0  0  0  0  0  0  0  0  0  0  0  0
   -0.7500   -1.2990    0.0000 C   0  0  0  0  0  0  0  0  0  0  0  0
    0.7500   -1.2990    0.0000 C   0  0  0  0  0  0  0  0  0  0  0  0
    1.5000   -2.5981    0.0000 C   0  0  0  0  0  0  0  0  0  0  0  0
    1.5000    0.0000    0.0000 C   0  0  0  0  0  0  0  0  0  0  0  0
    0.7500    1.2990    0.0000 C   0  0  0  0  0  0  0  0  0  0  0  0
   -0.7500    1.2990    0.0000 C   0  0  0  0  0  0  0  0  0  0  0  0
   -1.5000    0.0000    0.0000 C   0  0  0  0  0  0  0  0  0  0  0  0
  1  2  1  0
  2  3  1  0
  3  4  2  0
  4  5  1  0
  5  6  2  0
  6  7  1  0
  7  8  2  0
  7  9  1  0
  9 10  1  0
 10 11  1  0
 11 12  1  0
  8  3  1  0
 12  6  1  0
M  END
>  <Title>  (303) 
idAALQgen7

$$$$

     RDKit          2D

 14 14  0  0  0  0  0  0  0  0999 V2000
    6.1771   -1.2990    0.0000 C   0  0  0  0  0  0  0  0  0  0  0  0
    4.6771   -1.2990    0.0000 C   0  0  0  0  0  0  0  0  0  0  0  0
    3.9271   -2.5981    0.0000 C   0  0  0  0  0  0  0  0  0  0  0  0
    3.9271    0.0000    0.0000 C   0  0  0  0  0  0  0  0  0  0  0  0
    2.4271    0.0000    0.0000 C   0  0  0  0  0  0  0  0  0  0  0  0
    1.9635   -1.4266    0.0000 C   0  0  0  0  0  0  0  0  0  0  0  0
    0.7500   -2.3083    0.0000 C   0  0  0  0  0  0  0  0  0  0  0  0
   -0.7500   -2.3083    0.0000 C   0  0  0  0  0  0  0  0  0  0  0  0
   -1.9635   -1.4266    0.0000 C   0  0  0  0  0  0  0  0  0  0  0  0
   -2.4271    0.0000    0.0000 C   0  0  0  0  0  0  0  0  0  0  0  0
   -1.9635    1.4266    0.0000 C   0  0  0  0  0  0  0  0  0  0  0  0
   -0.7500    2.3083    0.0000 C   0  0  0  0  0  0  0  0  0  0  0  0
    0.7500    2.3083    0.0000 C   0  0  0  0  0  0  0  0  0  0  0  0
    1.9635    1.4266    0.0000 C   0  0  0  0  0  0  0  0  0  0  0  0
  1  2  1  0
  2  3  1  0
  2  4  1  0
  4  5  1  0
  5  6  1  0
  6  7  1  0
  7  8  1  0
  8  9  1  0
  9 10  1  0
 10 11  1  0
 11 12  1  0
 12 13  1  0
 13 14  1  0
 14  5  1  0
M  END
>  <Title>  (304) 
idAALRgen7

$$$$

     RDKit          2D

 21 21  0  0  0  0  0  0  0  0999 V2000
    9.6478    1.2990    0.0000 C   0  0  0  0  0  0  0  0  0  0  0  0
    8.8978    0.0000    0.0000 C   0  0  0  0  0  0  0  0  0  0  0  0
    9.6478   -1.2990    0.0000 C   0  0  0  0  0  0  0  0  0  0  0  0
    7.3978    0.0000    0.0000 C   0  0  0  0  0  0  0  0  0  0  0  0
    6.6478   -1.2990    0.0000 C   0  0  0  0  0  0  0  0  0  0  0  0
    7.3978   -2.5981    0.0000 C   0  0  0  0  0  0  0  0  0  0  0  0
    5.1478   -1.2990    0.0000 N   0  0  0  0  0  0  0  0  0  0  0  0
    4.3978    0.0000    0.0000 C   0  0  0  0  0  0  0  0  0  0  0  0
    5.1478    1.2990    0.0000 O   0  0  0  0  0  0  0  0  0  0  0  0
    2.8978    0.0000    0.0000 C   0  0  0  0  0  0  0  0  0  0  0  0
    2.5095   -1.4489    0.0000 C   0  0  0  0  0  0  0  0  0  0  0  0
    1.4489   -2.5095    0.0000 C   0  0  0  0  0  0  0  0  0  0  0  0
   -0.0000   -2.8978    0.0000 C   0  0  0  0  0  0  0  0  0  0  0  0
   -1.4489   -2.5095    0.0000 C   0  0  0  0  0  0  0  0  0  0  0  0
   -2.5095   -1.4489    0.0000 C   0  0  0  0  0  0  0  0  0  0  0  0
   -2.8978    0.0000    0.0000 C   0  0  0  0  0  0  0  0  0  0  0  0
   -2.5095    1.4489    0.0000 C   0  0  0  0  0  0  0  0  0  0  0  0
   -1.4489    2.5095    0.0000 C   0  0  0  0  0  0  0  0  0  0  0  0
    0.0000    2.8978    0.0000 C   0  0  0  0  0  0  0  0  0  0  0  0
    1.4489    2.5095    0.0000 C   0  0  0  0  0  0  0  0  0  0  0  0
    2.5095    1.4489    0.0000 C   0  0  0  0  0  0  0  0  0  0  0  0
  1  2  1  0
  2  3  1  0
  2  4  1  0
  4  5  1  0
  5  6  1  0
  5  7  1  0
  7  8  1  0
  8  9  2  0
  8 10  1  0
 10 11  1  0
 11 12  2  0
 12 13  1  0
 13 14  2  0
 14 15  1  0
 15 16  2  0
 16 17  1  0
 17 18  2  0
 18 19  1  0
 19 20  2  0
 20 21  1  0
 21 10  1  0
M  END
>  <Title>  (305) 
idAALSgen7

$$$$

     RDKit          2D

  9  9  0  0  0  0  0  0  0  0999 V2000
    3.2286   -0.0000    0.0000 C   0  0  0  0  0  0  0  0  0  0  0  0
    1.7286    0.0000    0.0000 C   0  0  0  0  0  0  0  0  0  0  0  0
    1.0777    1.3515    0.0000 C   0  0  0  0  0  0  0  0  0  0  0  0
   -0.3846    1.6852    0.0000 C   0  0  0  0  0  0  0  0  0  0  0  0
   -1.5574    0.7500    0.0000 C   0  0  0  0  0  0  0  0  0  0  0  0
   -1.5574   -0.7500    0.0000 C   0  0  0  0  0  0  0  0  0  0  0  0
   -0.3846   -1.6852    0.0000 C   0  0  0  0  0  0  0  0  0  0  0  0
   -0.7184   -3.1476    0.0000 C   0  0  0  0  0  0  0  0  0  0  0  0
    1.0777   -1.3515    0.0000 C   0  0  0  0  0  0  0  0  0  0  0  0
  1  2  1  0
  2  3  2  0
  3  4  1  0
  4  5  2  0
  5  6  1  0
  6  7  2  0
  7  8  1  0
  7  9  1  0
  9  2  1  0
M  END
>  <Title>  (306) 
idAALTgen7

$$$$

     RDKit          2D

 28 31  0  0  0  0  0  0  0  0999 V2000
    3.7500   -1.2990    0.0000 C   0  0  0  0  0  0  0  0  0  0  0  0
    3.0000    0.0000    0.0000 O   0  0  0  0  0  0  0  0  0  0  0  0
    1.5000    0.0000    0.0000 C   0  0  0  0  0  0  0  0  0  0  0  0
    0.7500   -1.2990    0.0000 C   0  0  0  0  0  0  0  0  0  0  0  0
   -0.7500   -1.2990    0.0000 C   0  0  0  0  0  0  0  0  0  0  0  0
   -1.5000    0.0000    0.0000 C   0  0  0  0  0  0  0  0  0  0  0  0
   -3.0000    0.0000    0.0000 C   0  0  0  0  0  0  0  0  0  0  0  0
   -3.8817   -1.2135    0.0000 N   0  0  0  0  0  0  0  0  0  0  0  0
   -5.3083   -0.7500    0.0000 N   0  0  0  0  0  0  0  0  0  0  0  0
   -5.3083    0.7500    0.0000 N   0  0  0  0  0  0  0  0  0  0  0  0
   -3.8817    1.2135    0.0000 N   0  0  0  0  0  0  0  0  0  0  0  0
   -3.4182    2.6401    0.0000 C   0  0  0  0  0  0  0  0  0  0  0  0
   -1.9509    2.9520    0.0000 C   0  0  0  0  0  0  0  0  0  0  0  0
   -1.4874    4.3786    0.0000 C   0  0  0  0  0  0  0  0  0  0  0  0
   -2.4911    5.4933    0.0000 C   0  0  0  0  0  0  0  0  0  0  0  0
   -2.0276    6.9199    0.0000 C   0  0  0  0  0  0  0  0  0  0  0  0
   -3.0313    8.0346    0.0000 O   0  0  0  0  0  0  0  0  0  0  0  0
   -0.5604    7.2317    0.0000 N   0  0  0  0  0  0  0  0  0  0  0  0
   -0.0968    8.6583    0.0000 C   0  0  0  0  0  0  0  0  0  0  0  0
    1.3704    8.9702    0.0000 C   0  0  0  0  0  0  0  0  0  0  0  0
    1.8339   10.3968    0.0000 C   0  0  0  0  0  0  0  0  0  0  0  0
    0.8302   11.5115    0.0000 C   0  0  0  0  0  0  0  0  0  0  0  0
   -0.6370   11.1996    0.0000 C   0  0  0  0  0  0  0  0  0  0  0  0
   -1.1005    9.7730    0.0000 C   0  0  0  0  0  0  0  0  0  0  0  0
   -3.9583    5.1814    0.0000 C   0  0  0  0  0  0  0  0  0  0  0  0
   -4.4218    3.7548    0.0000 C   0  0  0  0  0  0  0  0  0  0  0  0
   -0.7500    1.2990    0.0000 C   0  0  0  0  0  0  0  0  0  0  0  0
    0.7500    1.2990    0.0000 C   0  0  0  0  0  0  0  0  0  0  0  0
  1  2  1  0
  2  3  1  0
  3  4  2  0
  4  5  1  0
  5  6  2  0
  6  7  1  0
  7  8  2  0
  8  9  1  0
  9 10  2  0
 10 11  1  0
 11 12  1  0
 12 13  2  0
 13 14  1  0
 14 15  2  0
 15 16  1  0
 16 17  2  0
 16 18  1  0
 18 19  1  0
 19 20  2  0
 20 21  1  0
 21 22  2  0
 22 23  1  0
 23 24  2  0
 15 25  1  0
 25 26  2  0
  6 27  1  0
 27 28  2  0
 28  3  1  0
 11  7  1  0
 26 12  1  0
 24 19  1  0
M  END
>  <Title>  (307) 
idAALUgen7

$$$$

     RDKit          2D

 52 58  0  0  0  0  0  0  0  0999 V2000
    3.0000   -5.1962    0.0000 C   0  0  0  0  0  0  0  0  0  0  0  0
    1.5000   -5.1962    0.0000 C   0  0  0  0  0  0  0  0  0  0  0  0
    0.7500   -3.8971    0.0000 C   0  0  0  0  0  0  0  0  0  0  0  0
   -0.7500   -3.8971    0.0000 C   0  0  0  0  0  0  0  0  0  0  0  0
   -1.5000   -2.5981    0.0000 C   0  0  0  0  0  0  0  0  0  0  0  0
   -0.7500   -1.2990    0.0000 O   0  0  0  0  0  0  0  0  0  0  0  0
   -3.0000   -2.5981    0.0000 N   0  0  0  0  0  0  0  0  0  0  0  0
   -3.7500   -3.8971    0.0000 C   0  0  0  0  0  0  0  0  0  0  0  0
   -3.1399   -5.2674    0.0000 N   0  0  0  0  0  0  0  0  0  0  0  0
   -4.2546   -6.2711    0.0000 N   0  0  0  0  0  0  0  0  0  0  0  0
   -5.5537   -5.5211    0.0000 N   0  0  0  0  0  0  0  0  0  0  0  0
   -5.2418   -4.0539    0.0000 N   0  0  0  0  0  0  0  0  0  0  0  0
   -6.2455   -2.9392    0.0000 C   0  0  0  0  0  0  0  0  0  0  0  0
   -5.7820   -1.5126    0.0000 C   0  0  0  0  0  0  0  0  0  0  0  0
   -6.7856   -0.3979    0.0000 C   0  0  0  0  0  0  0  0  0  0  0  0
   -8.2529   -0.7098    0.0000 C   0  0  0  0  0  0  0  0  0  0  0  0
   -9.2566    0.4050    0.0000 C   0  0  0  0  0  0  0  0  0  0  0  0
  -10.7238    0.0931    0.0000 C   0  0  0  0  0  0  0  0  0  0  0  0
  -11.7275    1.2078    0.0000 C   0  0  0  0  0  0  0  0  0  0  0  0
  -11.2640    2.6344    0.0000 C   0  0  0  0  0  0  0  0  0  0  0  0
  -12.2677    3.7491    0.0000 C   0  0  0  0  0  0  0  0  0  0  0  0
  -13.7349    3.4372    0.0000 C   0  0  0  0  0  0  0  0  0  0  0  0
  -14.7386    4.5520    0.0000 C   0  0  0  0  0  0  0  0  0  0  0  0
  -14.2750    5.9785    0.0000 C   0  0  0  0  0  0  0  0  0  0  0  0
  -12.8078    6.2904    0.0000 C   0  0  0  0  0  0  0  0  0  0  0  0
  -11.8041    5.1757    0.0000 C   0  0  0  0  0  0  0  0  0  0  0  0
   -9.7967    2.9463    0.0000 C   0  0  0  0  0  0  0  0  0  0  0  0
   -8.7930    1.8315    0.0000 C   0  0  0  0  0  0  0  0  0  0  0  0
   -7.3258    2.1434    0.0000 C   0  0  0  0  0  0  0  0  0  0  0  0
   -6.8623    3.5700    0.0000 C   0  0  0  0  0  0  0  0  0  0  0  0
   -5.3951    3.8819    0.0000 C   0  0  0  0  0  0  0  0  0  0  0  0
   -4.3914    2.7671    0.0000 C   0  0  0  0  0  0  0  0  0  0  0  0
   -2.9242    3.0790    0.0000 C   0  0  0  0  0  0  0  0  0  0  0  0
   -2.4606    4.5056    0.0000 C   0  0  0  0  0  0  0  0  0  0  0  0
   -0.9934    4.8175    0.0000 C   0  0  0  0  0  0  0  0  0  0  0  0
    0.0103    3.7028    0.0000 C   0  0  0  0  0  0  0  0  0  0  0  0
   -0.4532    2.2762    0.0000 C   0  0  0  0  0  0  0  0  0  0  0  0
   -1.9205    1.9643    0.0000 C   0  0  0  0  0  0  0  0  0  0  0  0
   -4.8549    1.3406    0.0000 C   0  0  0  0  0  0  0  0  0  0  0  0
   -6.3221    1.0287    0.0000 C   0  0  0  0  0  0  0  0  0  0  0  0
   -8.7164   -2.1363    0.0000 C   0  0  0  0  0  0  0  0  0  0  0  0
  -10.1836   -2.4482    0.0000 O   0  0  0  0  0  0  0  0  0  0  0  0
   -7.7127   -3.2511    0.0000 N   0  0  0  0  0  0  0  0  0  0  0  0
   -1.5000   -5.1962    0.0000 C   0  0  0  0  0  0  0  0  0  0  0  0
   -0.7500   -6.4952    0.0000 C   0  0  0  0  0  0  0  0  0  0  0  0
    0.7500   -6.4952    0.0000 C   0  0  0  0  0  0  0  0  0  0  0  0
    1.5000   -7.7942    0.0000 C   0  0  0  0  0  0  0  0  0  0  0  0
    0.7500   -9.0933    0.0000 O   0  0  0  0  0  0  0  0  0  0  0  0
    3.0000   -7.7942    0.0000 N   0  0  0  0  0  0  0  0  0  0  0  0
    3.7500   -9.0933    0.0000 C   0  0  0  0  0  0  0  0  0  0  0  0
    5.2500   -9.0933    0.0000 C   0  0  0  0  0  0  0  0  0  0  0  0
    3.0000  -10.3923    0.0000 C   0  0  0  0  0  0  0  0  0  0  0  0
  1  2  1  0
  2  3  2  0
  3  4  1  0
  4  5  1  0
  5  6  2  0
  5  7  1  0
  7  8  1  0
  8  9  2  0
  9 10  1  0
 10 11  2  0
 11 12  1  0
 12 13  1  0
 13 14  2  0
 14 15  1  0
 15 16  2  0
 16 17  1  0
 17 18  2  0
 18 19  1  0
 19 20  2  0
 20 21  1  0
 21 22  2  0
 22 23  1  0
 23 24  2  0
 24 25  1  0
 25 26  2  0
 20 27  1  0
 27 28  2  0
 28 29  1  0
 29 30  2  0
 30 31  1  0
 31 32  2  0
 32 33  1  0
 33 34  2  0
 34 35  1  0
 35 36  2  0
 36 37  1  0
 37 38  2  0
 32 39  1  0
 39 40  2  0
 16 41  1  0
 41 42  2  0
 41 43  1  0
  4 44  2  0
 44 45  1  0
 45 46  1  0
 46 47  1  0
 47 48  2  0
 47 49  1  0
 49 50  1  0
 50 51  1  0
 50 52  1  0
 46  2  1  0
 12  8  1  0
 43 13  1  0
 28 17  1  0
 40 29  1  0
 26 21  1  0
 38 33  1  0
M  END
>  <Title>  (308) 
idAALVgen7

$$$$

     RDKit          2D

 15 16  0  0  0  0  0  0  0  0999 V2000
   -4.1395   -4.4228    0.0000 C   0  0  0  0  0  0  0  0  0  0  0  0
   -2.9904   -3.4586    0.0000 C   0  0  0  0  0  0  0  0  0  0  0  0
   -1.6914   -4.2086    0.0000 C   0  0  0  0  0  0  0  0  0  0  0  0
   -0.2142   -3.9481    0.0000 C   0  0  0  0  0  0  0  0  0  0  0  0
    0.7500   -2.7990    0.0000 C   0  0  0  0  0  0  0  0  0  0  0  0
    0.7500   -1.2990    0.0000 C   0  0  0  0  0  0  0  0  0  0  0  0
    1.5000    0.0000    0.0000 C   0  0  0  0  0  0  0  0  0  0  0  0
    0.7500    1.2990    0.0000 C   0  0  0  0  0  0  0  0  0  0  0  0
   -0.7500    1.2990    0.0000 C   0  0  0  0  0  0  0  0  0  0  0  0
   -1.5000    2.5981    0.0000 C   0  0  0  0  0  0  0  0  0  0  0  0
   -1.5000    0.0000    0.0000 C   0  0  0  0  0  0  0  0  0  0  0  0
   -0.7500   -1.2990    0.0000 C   0  0  0  0  0  0  0  0  0  0  0  0
   -2.9904   -0.6395    0.0000 N   0  0  0  0  0  0  0  0  0  0  0  0
   -3.5035   -2.0490    0.0000 C   0  0  0  0  0  0  0  0  0  0  0  0
   -5.0035   -2.0490    0.0000 O   0  0  0  0  0  0  0  0  0  0  0  0
  1  2  1  0
  2  3  2  0
  3  4  1  0
  4  5  2  0
  5  6  1  0
  6  7  2  0
  7  8  1  0
  8  9  2  0
  9 10  1  0
  9 11  1  0
 11 12  2  0
 11 13  1  0
 13 14  1  0
 14 15  2  0
 14  2  1  0
 12  6  1  0
M  END
>  <Title>  (309) 
idAALWgen7

$$$$

     RDKit          2D

 45 51  0  0  0  0  0  0  0  0999 V2000
    3.0000    0.0000    0.0000 C   0  0  0  0  0  0  0  0  0  0  0  0
    1.5000    0.0000    0.0000 C   0  0  0  0  0  0  0  0  0  0  0  0
    0.7500   -1.2990    0.0000 C   0  0  0  0  0  0  0  0  0  0  0  0
   -0.7500   -1.2990    0.0000 C   0  0  0  0  0  0  0  0  0  0  0  0
   -1.5000    0.0000    0.0000 C   0  0  0  0  0  0  0  0  0  0  0  0
   -3.0000    0.0000    0.0000 C   0  0  0  0  0  0  0  0  0  0  0  0
   -3.8817   -1.2135    0.0000 N   0  0  0  0  0  0  0  0  0  0  0  0
   -5.3083   -0.7500    0.0000 N   0  0  0  0  0  0  0  0  0  0  0  0
   -5.3083    0.7500    0.0000 N   0  0  0  0  0  0  0  0  0  0  0  0
   -3.8817    1.2135    0.0000 N   0  0  0  0  0  0  0  0  0  0  0  0
   -3.4182    2.6401    0.0000 C   0  0  0  0  0  0  0  0  0  0  0  0
   -1.9509    2.9520    0.0000 C   0  0  0  0  0  0  0  0  0  0  0  0
   -1.4874    4.3786    0.0000 C   0  0  0  0  0  0  0  0  0  0  0  0
   -2.4911    5.4933    0.0000 C   0  0  0  0  0  0  0  0  0  0  0  0
   -2.0276    6.9199    0.0000 C   0  0  0  0  0  0  0  0  0  0  0  0
   -0.5604    7.2317    0.0000 C   0  0  0  0  0  0  0  0  0  0  0  0
   -0.0968    8.6583    0.0000 C   0  0  0  0  0  0  0  0  0  0  0  0
   -1.1005    9.7730    0.0000 C   0  0  0  0  0  0  0  0  0  0  0  0
   -2.5677    9.4612    0.0000 C   0  0  0  0  0  0  0  0  0  0  0  0
   -3.0313    8.0346    0.0000 C   0  0  0  0  0  0  0  0  0  0  0  0
   -3.9583    5.1814    0.0000 C   0  0  0  0  0  0  0  0  0  0  0  0
   -4.4218    3.7548    0.0000 C   0  0  0  0  0  0  0  0  0  0  0  0
   -5.8891    3.4430    0.0000 N   0  0  0  0  0  0  0  0  0  0  0  0
   -6.3526    2.0164    0.0000 N   0  0  0  0  0  0  0  0  0  0  0  0
   -7.8198    1.7045    0.0000 N   0  0  0  0  0  0  0  0  0  0  0  0
   -8.8235    2.8192    0.0000 N   0  0  0  0  0  0  0  0  0  0  0  0
   -8.3600    4.2458    0.0000 N   0  0  0  0  0  0  0  0  0  0  0  0
   -6.8928    4.5577    0.0000 N   0  0  0  0  0  0  0  0  0  0  0  0
   -6.4292    5.9843    0.0000 C   0  0  0  0  0  0  0  0  0  0  0  0
   -7.4329    7.0990    0.0000 C   0  0  0  0  0  0  0  0  0  0  0  0
   -6.9694    8.5256    0.0000 C   0  0  0  0  0  0  0  0  0  0  0  0
   -5.5022    8.8374    0.0000 C   0  0  0  0  0  0  0  0  0  0  0  0
   -5.0387   10.2640    0.0000 C   0  0  0  0  0  0  0  0  0  0  0  0
   -3.5714   10.5759    0.0000 O   0  0  0  0  0  0  0  0  0  0  0  0
   -6.0424   11.3787    0.0000 N   0  0  0  0  0  0  0  0  0  0  0  0
   -5.5788   12.8053    0.0000 C   0  0  0  0  0  0  0  0  0  0  0  0
   -6.5825   13.9200    0.0000 C   0  0  0  0  0  0  0  0  0  0  0  0
   -6.1190   15.3466    0.0000 C   0  0  0  0  0  0  0  0  0  0  0  0
   -4.6518   15.6585    0.0000 C   0  0  0  0  0  0  0  0  0  0  0  0
   -3.6481   14.5438    0.0000 C   0  0  0  0  0  0  0  0  0  0  0  0
   -4.1116   13.1172    0.0000 C   0  0  0  0  0  0  0  0  0  0  0  0
   -4.4985    7.7227    0.0000 C   0  0  0  0  0  0  0  0  0  0  0  0
   -4.9620    6.2961    0.0000 C   0  0  0  0  0  0  0  0  0  0  0  0
   -0.7500    1.2990    0.0000 C   0  0  0  0  0  0  0  0  0  0  0  0
    0.7500    1.2990    0.0000 C   0  0  0  0  0  0  0  0  0  0  0  0
  1  2  1  0
  2  3  2  0
  3  4  1  0
  4  5  2  0
  5  6  1  0
  6  7  2  0
  7  8  1  0
  8  9  2  0
  9 10  1  0
 10 11  1  0
 11 12  2  0
 12 13  1  0
 13 14  2  0
 14 15  1  0
 15 16  2  0
 16 17  1  0
 17 18  2  0
 18 19  1  0
 19 20  2  0
 14 21  1  0
 21 22  2  0
 22 23  1  0
 23 24  1  0
 24 25  2  0
 25 26  1  0
 26 27  2  0
 27 28  1  0
 28 29  1  0
 29 30  2  0
 30 31  1  0
 31 32  2  0
 32 33  1  0
 33 34  2  0
 33 35  1  0
 35 36  1  0
 36 37  2  0
 37 38  1  0
 38 39  2  0
 39 40  1  0
 40 41  2  0
 32 42  1  0
 42 43  2  0
  5 44  1  0
 44 45  2  0
 45  2  1  0
 10  6  1  0
 22 11  1  0
 28 23  1  0
 43 29  1  0
 20 15  1  0
 41 36  1  0
M  END
>  <Title>  (310) 
idAALXgen7

$$$$

     RDKit          2D

 26 28  0  0  0  0  0  0  0  0999 V2000
    3.0000    0.0000    0.0000 C   0  0  0  0  0  0  0  0  0  0  0  0
    1.5000    0.0000    0.0000 C   0  0  0  0  0  0  0  0  0  0  0  0
    0.7500   -1.2990    0.0000 C   0  0  0  0  0  0  0  0  0  0  0  0
   -0.7500   -1.2990    0.0000 C   0  0  0  0  0  0  0  0  0  0  0  0
   -1.5000    0.0000    0.0000 C   0  0  0  0  0  0  0  0  0  0  0  0
   -3.0000    0.0000    0.0000 C   0  0  0  0  0  0  0  0  0  0  0  0
   -3.7500   -1.2990    0.0000 O   0  0  0  0  0  0  0  0  0  0  0  0
   -3.7500    1.2990    0.0000 N   0  0  0  0  0  0  0  0  0  0  0  0
   -5.2500    1.2990    0.0000 C   0  0  0  0  0  0  0  0  0  0  0  0
   -6.1317    0.0855    0.0000 N   0  0  0  0  0  0  0  0  0  0  0  0
   -7.5583    0.5490    0.0000 N   0  0  0  0  0  0  0  0  0  0  0  0
   -7.5583    2.0490    0.0000 N   0  0  0  0  0  0  0  0  0  0  0  0
   -6.1317    2.5126    0.0000 N   0  0  0  0  0  0  0  0  0  0  0  0
   -5.6682    3.9391    0.0000 C   0  0  0  0  0  0  0  0  0  0  0  0
   -4.2009    4.2510    0.0000 C   0  0  0  0  0  0  0  0  0  0  0  0
   -3.7374    5.6776    0.0000 C   0  0  0  0  0  0  0  0  0  0  0  0
   -4.7411    6.7923    0.0000 C   0  0  0  0  0  0  0  0  0  0  0  0
   -4.2776    8.2189    0.0000 C   0  0  0  0  0  0  0  0  0  0  0  0
   -5.2813    9.3336    0.0000 O   0  0  0  0  0  0  0  0  0  0  0  0
   -2.8104    8.5308    0.0000 N   0  0  0  0  0  0  0  0  0  0  0  0
   -2.3468    9.9574    0.0000 O   0  0  0  0  0  0  0  0  0  0  0  0
   -6.2083    6.4805    0.0000 C   0  0  0  0  0  0  0  0  0  0  0  0
   -6.6718    5.0539    0.0000 C   0  0  0  0  0  0  0  0  0  0  0  0
   -0.7500    1.2990    0.0000 C   0  0  0  0  0  0  0  0  0  0  0  0
   -1.5000    2.5981    0.0000 O   0  0  0  0  0  0  0  0  0  0  0  0
    0.7500    1.2990    0.0000 O   0  0  0  0  0  0  0  0  0  0  0  0
  1  2  1  0
  2  3  2  0
  3  4  1  0
  4  5  2  0
  5  6  1  0
  6  7  2  0
  6  8  1  0
  8  9  1  0
  9 10  2  0
 10 11  1  0
 11 12  2  0
 12 13  1  0
 13 14  1  0
 14 15  2  0
 15 16  1  0
 16 17  2  0
 17 18  1  0
 18 19  2  0
 18 20  1  0
 20 21  1  0
 17 22  1  0
 22 23  1  0
  5 24  1  0
 24 25  2  0
 24 26  1  0
 26  2  1  0
 13  9  1  0
 23 14  1  0
M  END
>  <Title>  (311) 
idAALYgen7

$$$$

     RDKit          2D

 50 57  0  0  0  0  0  0  0  0999 V2000
    3.0000    0.0000    0.0000 C   0  0  0  0  0  0  0  0  0  0  0  0
    1.5000    0.0000    0.0000 C   0  0  0  0  0  0  0  0  0  0  0  0
    0.7500    1.2990    0.0000 C   0  0  0  0  0  0  0  0  0  0  0  0
   -0.7500    1.2990    0.0000 C   0  0  0  0  0  0  0  0  0  0  0  0
   -1.5000    0.0000    0.0000 C   0  0  0  0  0  0  0  0  0  0  0  0
   -3.0000    0.0000    0.0000 C   0  0  0  0  0  0  0  0  0  0  0  0
   -3.8817   -1.2135    0.0000 N   0  0  0  0  0  0  0  0  0  0  0  0
   -5.3083   -0.7500    0.0000 N   0  0  0  0  0  0  0  0  0  0  0  0
   -5.3083    0.7500    0.0000 N   0  0  0  0  0  0  0  0  0  0  0  0
   -3.8817    1.2135    0.0000 N   0  0  0  0  0  0  0  0  0  0  0  0
   -3.4182    2.6401    0.0000 C   0  0  0  0  0  0  0  0  0  0  0  0
   -1.9509    2.9520    0.0000 C   0  0  0  0  0  0  0  0  0  0  0  0
   -1.4874    4.3786    0.0000 C   0  0  0  0  0  0  0  0  0  0  0  0
   -2.4911    5.4933    0.0000 C   0  0  0  0  0  0  0  0  0  0  0  0
   -2.0276    6.9199    0.0000 C   0  0  0  0  0  0  0  0  0  0  0  0
   -3.0313    8.0346    0.0000 O   0  0  0  0  0  0  0  0  0  0  0  0
   -0.5604    7.2317    0.0000 N   0  0  0  0  0  0  0  0  0  0  0  0
   -0.0968    8.6583    0.0000 C   0  0  0  0  0  0  0  0  0  0  0  0
   -0.9785    9.8718    0.0000 N   0  0  0  0  0  0  0  0  0  0  0  0
   -0.0968   11.0854    0.0000 N   0  0  0  0  0  0  0  0  0  0  0  0
    1.3298   10.6218    0.0000 N   0  0  0  0  0  0  0  0  0  0  0  0
    1.3298    9.1218    0.0000 N   0  0  0  0  0  0  0  0  0  0  0  0
    2.5433    8.2402    0.0000 C   0  0  0  0  0  0  0  0  0  0  0  0
    2.3865    6.7484    0.0000 C   0  0  0  0  0  0  0  0  0  0  0  0
    3.6000    5.8667    0.0000 C   0  0  0  0  0  0  0  0  0  0  0  0
    4.9703    6.4768    0.0000 C   0  0  0  0  0  0  0  0  0  0  0  0
    5.1271    7.9686    0.0000 C   0  0  0  0  0  0  0  0  0  0  0  0
    3.9136    8.8503    0.0000 C   0  0  0  0  0  0  0  0  0  0  0  0
    4.0704   10.3421    0.0000 C   0  0  0  0  0  0  0  0  0  0  0  0
    2.9557   11.3457    0.0000 N   0  0  0  0  0  0  0  0  0  0  0  0
    3.5658   12.7161    0.0000 N   0  0  0  0  0  0  0  0  0  0  0  0
    5.0576   12.5593    0.0000 N   0  0  0  0  0  0  0  0  0  0  0  0
    5.3694   11.0921    0.0000 N   0  0  0  0  0  0  0  0  0  0  0  0
    6.7397   10.4819    0.0000 C   0  0  0  0  0  0  0  0  0  0  0  0
    6.8965    8.9902    0.0000 C   0  0  0  0  0  0  0  0  0  0  0  0
    8.2669    8.3801    0.0000 C   0  0  0  0  0  0  0  0  0  0  0  0
    9.4804    9.2617    0.0000 C   0  0  0  0  0  0  0  0  0  0  0  0
   10.8507    8.6516    0.0000 C   0  0  0  0  0  0  0  0  0  0  0  0
   11.0075    7.1598    0.0000 C   0  0  0  0  0  0  0  0  0  0  0  0
   12.3778    6.5497    0.0000 C   0  0  0  0  0  0  0  0  0  0  0  0
   13.5913    7.4314    0.0000 C   0  0  0  0  0  0  0  0  0  0  0  0
   13.4345    8.9232    0.0000 C   0  0  0  0  0  0  0  0  0  0  0  0
   12.0642    9.5333    0.0000 C   0  0  0  0  0  0  0  0  0  0  0  0
    9.3236   10.7535    0.0000 C   0  0  0  0  0  0  0  0  0  0  0  0
    7.9533   11.3636    0.0000 C   0  0  0  0  0  0  0  0  0  0  0  0
   -3.9583    5.1814    0.0000 C   0  0  0  0  0  0  0  0  0  0  0  0
   -4.4218    3.7548    0.0000 C   0  0  0  0  0  0  0  0  0  0  0  0
   -0.7500   -1.2990    0.0000 C   0  0  0  0  0  0  0  0  0  0  0  0
   -1.5000   -2.5981    0.0000 O   0  0  0  0  0  0  0  0  0  0  0  0
    0.7500   -1.2990    0.0000 N   0  0  0  0  0  0  0  0  0  0  0  0
  1  2  1  0
  2  3  2  0
  3  4  1  0
  4  5  2  0
  5  6  1  0
  6  7  2  0
  7  8  1  0
  8  9  2  0
  9 10  1  0
 10 11  1  0
 11 12  2  0
 12 13  1  0
 13 14  2  0
 14 15  1  0
 15 16  2  0
 15 17  1  0
 17 18  1  0
 18 19  2  0
 19 20  1  0
 20 21  2  0
 21 22  1  0
 22 23  1  0
 23 24  2  0
 24 25  1  0
 25 26  2  0
 26 27  1  0
 27 28  2  0
 28 29  1  0
 29 30  2  0
 30 31  1  0
 31 32  2  0
 32 33  1  0
 33 34  1  0
 34 35  2  0
 35 36  1  0
 36 37  2  0
 37 38  1  0
 38 39  2  0
 39 40  1  0
 40 41  2  0
 41 42  1  0
 42 43  2  0
 37 44  1  0
 44 45  2  0
 14 46  1  0
 46 47  2  0
  5 48  1  0
 48 49  2  0
 48 50  1  0
 50  2  1  0
 10  6  1  0
 47 11  1  0
 22 18  1  0
 28 23  1  0
 33 29  1  0
 45 34  1  0
 43 38  1  0
M  END
>  <Title>  (312) 
idAALZgen7

$$$$

     RDKit          2D

 31 34  0  0  0  0  0  0  0  0999 V2000
    3.7500   -1.2990    0.0000 C   0  0  0  0  0  0  0  0  0  0  0  0
    3.0000    0.0000    0.0000 O   0  0  0  0  0  0  0  0  0  0  0  0
    1.5000    0.0000    0.0000 C   0  0  0  0  0  0  0  0  0  0  0  0
    0.7500   -1.2990    0.0000 C   0  0  0  0  0  0  0  0  0  0  0  0
   -0.7500   -1.2990    0.0000 C   0  0  0  0  0  0  0  0  0  0  0  0
   -1.5000    0.0000    0.0000 C   0  0  0  0  0  0  0  0  0  0  0  0
   -3.0000    0.0000    0.0000 N   0  0  0  0  0  0  0  0  0  0  0  0
   -3.7500    1.2990    0.0000 C   0  0  0  0  0  0  0  0  0  0  0  0
   -3.0000    2.5981    0.0000 O   0  0  0  0  0  0  0  0  0  0  0  0
   -5.2500    1.2990    0.0000 C   0  0  0  0  0  0  0  0  0  0  0  0
   -6.0000    2.5981    0.0000 C   0  0  0  0  0  0  0  0  0  0  0  0
   -7.5000    2.5981    0.0000 C   0  0  0  0  0  0  0  0  0  0  0  0
   -8.2500    1.2990    0.0000 C   0  0  0  0  0  0  0  0  0  0  0  0
   -9.7500    1.2990    0.0000 N   0  0  0  0  0  0  0  0  0  0  0  0
  -10.5000    2.5981    0.0000 C   0  0  0  0  0  0  0  0  0  0  0  0
   -9.7500    3.8971    0.0000 O   0  0  0  0  0  0  0  0  0  0  0  0
  -12.0000    2.5981    0.0000 C   0  0  0  0  0  0  0  0  0  0  0  0
  -12.8817    1.3846    0.0000 N   0  0  0  0  0  0  0  0  0  0  0  0
  -14.3083    1.8481    0.0000 N   0  0  0  0  0  0  0  0  0  0  0  0
  -14.3083    3.3481    0.0000 N   0  0  0  0  0  0  0  0  0  0  0  0
  -12.8817    3.8116    0.0000 N   0  0  0  0  0  0  0  0  0  0  0  0
  -12.4182    5.2382    0.0000 C   0  0  0  0  0  0  0  0  0  0  0  0
  -10.9509    5.5501    0.0000 C   0  0  0  0  0  0  0  0  0  0  0  0
  -10.4874    6.9766    0.0000 C   0  0  0  0  0  0  0  0  0  0  0  0
  -11.4911    8.0914    0.0000 C   0  0  0  0  0  0  0  0  0  0  0  0
  -12.9583    7.7795    0.0000 C   0  0  0  0  0  0  0  0  0  0  0  0
  -13.4218    6.3529    0.0000 C   0  0  0  0  0  0  0  0  0  0  0  0
   -7.5000    0.0000    0.0000 C   0  0  0  0  0  0  0  0  0  0  0  0
   -6.0000    0.0000    0.0000 C   0  0  0  0  0  0  0  0  0  0  0  0
   -0.7500    1.2990    0.0000 C   0  0  0  0  0  0  0  0  0  0  0  0
    0.7500    1.2990    0.0000 C   0  0  0  0  0  0  0  0  0  0  0  0
  1  2  1  0
  2  3  1  0
  3  4  2  0
  4  5  1  0
  5  6  2  0
  6  7  1  0
  7  8  1  0
  8  9  2  0
  8 10  1  0
 10 11  2  0
 11 12  1  0
 12 13  2  0
 13 14  1  0
 14 15  1  0
 15 16  2  0
 15 17  1  0
 17 18  2  0
 18 19  1  0
 19 20  2  0
 20 21  1  0
 21 22  1  0
 22 23  2  0
 23 24  1  0
 24 25  2  0
 25 26  1  0
 26 27  2  0
 13 28  1  0
 28 29  2  0
  6 30  1  0
 30 31  2  0
 31  3  1  0
 29 10  1  0
 21 17  1  0
 27 22  1  0
M  END
>  <Title>  (313) 
idAAMAgen7

$$$$

     RDKit          2D

 25 25  0  0  0  0  0  0  0  0999 V2000
    7.2460    0.0000    0.0000 C   0  0  0  0  0  0  0  0  0  0  0  0
    5.7460    0.0000    0.0000 C   0  0  0  0  0  0  0  0  0  0  0  0
    5.5502   -1.4872    0.0000 C   0  0  0  0  0  0  0  0  0  0  0  0
    4.9762   -2.8730    0.0000 C   0  0  0  0  0  0  0  0  0  0  0  0
    4.0630   -4.0630    0.0000 C   0  0  0  0  0  0  0  0  0  0  0  0
    2.8730   -4.9762    0.0000 C   0  0  0  0  0  0  0  0  0  0  0  0
    1.4872   -5.5502    0.0000 C   0  0  0  0  0  0  0  0  0  0  0  0
   -0.0000   -5.7460    0.0000 C   0  0  0  0  0  0  0  0  0  0  0  0
   -1.4872   -5.5502    0.0000 C   0  0  0  0  0  0  0  0  0  0  0  0
   -2.8730   -4.9762    0.0000 C   0  0  0  0  0  0  0  0  0  0  0  0
   -4.0630   -4.0630    0.0000 C   0  0  0  0  0  0  0  0  0  0  0  0
   -4.9762   -2.8730    0.0000 C   0  0  0  0  0  0  0  0  0  0  0  0
   -5.5502   -1.4872    0.0000 C   0  0  0  0  0  0  0  0  0  0  0  0
   -5.7460    0.0000    0.0000 C   0  0  0  0  0  0  0  0  0  0  0  0
   -5.5502    1.4872    0.0000 C   0  0  0  0  0  0  0  0  0  0  0  0
   -4.9762    2.8730    0.0000 C   0  0  0  0  0  0  0  0  0  0  0  0
   -4.0630    4.0630    0.0000 C   0  0  0  0  0  0  0  0  0  0  0  0
   -2.8730    4.9762    0.0000 C   0  0  0  0  0  0  0  0  0  0  0  0
   -1.4872    5.5502    0.0000 C   0  0  0  0  0  0  0  0  0  0  0  0
    0.0000    5.7460    0.0000 C   0  0  0  0  0  0  0  0  0  0  0  0
    1.4872    5.5502    0.0000 C   0  0  0  0  0  0  0  0  0  0  0  0
    2.8730    4.9762    0.0000 C   0  0  0  0  0  0  0  0  0  0  0  0
    4.0630    4.0630    0.0000 C   0  0  0  0  0  0  0  0  0  0  0  0
    4.9762    2.8730    0.0000 C   0  0  0  0  0  0  0  0  0  0  0  0
    5.5502    1.4872    0.0000 C   0  0  0  0  0  0  0  0  0  0  0  0
  1  2  1  0
  2  3  1  0
  3  4  2  0
  4  5  1  0
  5  6  2  0
  6  7  1  0
  7  8  2  0
  8  9  1  0
  9 10  2  0
 10 11  1  0
 11 12  2  0
 12 13  1  0
 13 14  2  0
 14 15  1  0
 15 16  2  0
 16 17  1  0
 17 18  1  0
 18 19  1  0
 19 20  1  0
 20 21  1  0
 21 22  1  0
 22 23  1  0
 23 24  1  0
 24 25  1  0
 25  2  1  0
M  END
>  <Title>  (314) 
idAAMBgen7

$$$$

     RDKit          2D

 11 12  0  0  0  0  0  0  0  0999 V2000
   -1.7979    5.5335    0.0000 C   0  0  0  0  0  0  0  0  0  0  0  0
   -1.3344    4.1069    0.0000 C   0  0  0  0  0  0  0  0  0  0  0  0
    0.1520    3.9056    0.0000 C   0  0  0  0  0  0  0  0  0  0  0  0
    0.9214    2.6179    0.0000 C   0  0  0  0  0  0  0  0  0  0  0  0
    0.3943    1.2135    0.0000 C   0  0  0  0  0  0  0  0  0  0  0  0
    1.2760    0.0000    0.0000 C   0  0  0  0  0  0  0  0  0  0  0  0
    0.3943   -1.2135    0.0000 C   0  0  0  0  0  0  0  0  0  0  0  0
   -1.0323   -0.7500    0.0000 C   0  0  0  0  0  0  0  0  0  0  0  0
   -1.0323    0.7500    0.0000 C   0  0  0  0  0  0  0  0  0  0  0  0
   -2.2841    1.5763    0.0000 C   0  0  0  0  0  0  0  0  0  0  0  0
   -2.4186    3.0703    0.0000 C   0  0  0  0  0  0  0  0  0  0  0  0
  1  2  1  0
  2  3  2  0
  3  4  1  0
  4  5  2  0
  5  6  1  0
  6  7  2  0
  7  8  1  0
  8  9  2  0
  9 10  1  0
 10 11  2  0
 11  2  1  0
  9  5  1  0
M  END
>  <Title>  (315) 
idAAMCgen7

$$$$

     RDKit          2D

 54 61  0  0  0  0  0  0  0  0999 V2000
    1.7932   -7.4188    0.0000 C   0  0  0  0  0  0  0  0  0  0  0  0
    0.5797   -8.3004    0.0000 C   0  0  0  0  0  0  0  0  0  0  0  0
    0.7365   -9.7922    0.0000 C   0  0  0  0  0  0  0  0  0  0  0  0
   -0.4771  -10.6739    0.0000 C   0  0  0  0  0  0  0  0  0  0  0  0
   -1.8474  -10.0638    0.0000 C   0  0  0  0  0  0  0  0  0  0  0  0
   -3.0609  -10.9455    0.0000 C   0  0  0  0  0  0  0  0  0  0  0  0
   -2.9041  -12.4373    0.0000 O   0  0  0  0  0  0  0  0  0  0  0  0
   -4.4312  -10.3354    0.0000 N   0  0  0  0  0  0  0  0  0  0  0  0
   -5.6447  -11.2170    0.0000 C   0  0  0  0  0  0  0  0  0  0  0  0
   -5.6447  -12.7170    0.0000 N   0  0  0  0  0  0  0  0  0  0  0  0
   -7.0713  -13.1806    0.0000 N   0  0  0  0  0  0  0  0  0  0  0  0
   -7.9530  -11.9670    0.0000 N   0  0  0  0  0  0  0  0  0  0  0  0
   -7.0713  -10.7535    0.0000 N   0  0  0  0  0  0  0  0  0  0  0  0
   -7.5348   -9.3269    0.0000 C   0  0  0  0  0  0  0  0  0  0  0  0
   -8.9614   -8.8634    0.0000 C   0  0  0  0  0  0  0  0  0  0  0  0
   -8.9614   -7.3634    0.0000 C   0  0  0  0  0  0  0  0  0  0  0  0
   -7.5348   -6.8999    0.0000 C   0  0  0  0  0  0  0  0  0  0  0  0
   -7.0713   -5.4733    0.0000 C   0  0  0  0  0  0  0  0  0  0  0  0
   -8.0750   -4.3586    0.0000 O   0  0  0  0  0  0  0  0  0  0  0  0
   -5.6041   -5.1614    0.0000 N   0  0  0  0  0  0  0  0  0  0  0  0
   -5.1406   -3.7348    0.0000 C   0  0  0  0  0  0  0  0  0  0  0  0
   -3.6406   -3.7348    0.0000 C   0  0  0  0  0  0  0  0  0  0  0  0
   -2.4271   -2.8532    0.0000 C   0  0  0  0  0  0  0  0  0  0  0  0
   -1.9635   -1.4266    0.0000 C   0  0  0  0  0  0  0  0  0  0  0  0
   -0.7500   -2.3083    0.0000 C   0  0  0  0  0  0  0  0  0  0  0  0
    0.7500   -2.3083    0.0000 C   0  0  0  0  0  0  0  0  0  0  0  0
    1.2135   -3.7348    0.0000 C   0  0  0  0  0  0  0  0  0  0  0  0
    0.3318   -4.9484    0.0000 N   0  0  0  0  0  0  0  0  0  0  0  0
    1.2135   -6.1619    0.0000 N   0  0  0  0  0  0  0  0  0  0  0  0
    2.6401   -5.6984    0.0000 N   0  0  0  0  0  0  0  0  0  0  0  0
    2.6401   -4.1984    0.0000 N   0  0  0  0  0  0  0  0  0  0  0  0
    3.8536   -3.3167    0.0000 C   0  0  0  0  0  0  0  0  0  0  0  0
    3.6968   -1.8249    0.0000 C   0  0  0  0  0  0  0  0  0  0  0  0
    4.9104   -0.9432    0.0000 C   0  0  0  0  0  0  0  0  0  0  0  0
    6.2807   -1.5533    0.0000 C   0  0  0  0  0  0  0  0  0  0  0  0
    6.4375   -3.0451    0.0000 C   0  0  0  0  0  0  0  0  0  0  0  0
    5.2240   -3.9268    0.0000 C   0  0  0  0  0  0  0  0  0  0  0  0
    1.9635   -1.4266    0.0000 C   0  0  0  0  0  0  0  0  0  0  0  0
    2.4271    0.0000    0.0000 C   0  0  0  0  0  0  0  0  0  0  0  0
    1.9635    1.4266    0.0000 C   0  0  0  0  0  0  0  0  0  0  0  0
    0.7500    2.3083    0.0000 C   0  0  0  0  0  0  0  0  0  0  0  0
   -0.7500    2.3083    0.0000 C   0  0  0  0  0  0  0  0  0  0  0  0
   -1.9635    1.4266    0.0000 C   0  0  0  0  0  0  0  0  0  0  0  0
   -2.4271    0.0000    0.0000 C   0  0  0  0  0  0  0  0  0  0  0  0
   -3.6406    0.8817    0.0000 N   0  0  0  0  0  0  0  0  0  0  0  0
   -5.1406    0.8817    0.0000 N   0  0  0  0  0  0  0  0  0  0  0  0
   -6.3541    0.0000    0.0000 N   0  0  0  0  0  0  0  0  0  0  0  0
   -6.8176   -1.4266    0.0000 N   0  0  0  0  0  0  0  0  0  0  0  0
   -6.3541   -2.8532    0.0000 C   0  0  0  0  0  0  0  0  0  0  0  0
   -6.6532   -8.1134    0.0000 C   0  0  0  0  0  0  0  0  0  0  0  0
   -5.1532   -8.1134    0.0000 O   0  0  0  0  0  0  0  0  0  0  0  0
   -2.0042   -8.5720    0.0000 C   0  0  0  0  0  0  0  0  0  0  0  0
   -3.3745   -7.9619    0.0000 O   0  0  0  0  0  0  0  0  0  0  0  0
   -0.7906   -7.6903    0.0000 N   0  0  0  0  0  0  0  0  0  0  0  0
  1  2  1  0
  2  3  2  0
  3  4  1  0
  4  5  2  0
  5  6  1  0
  6  7  2  0
  6  8  1  0
  8  9  1  0
  9 10  2  0
 10 11  1  0
 11 12  2  0
 12 13  1  0
 13 14  1  0
 14 15  2  0
 15 16  1  0
 16 17  2  0
 17 18  1  0
 18 19  2  0
 18 20  1  0
 20 21  1  0
 21 22  2  0
 22 23  1  0
 23 24  2  0
 24 25  1  0
 25 26  2  0
 26 27  1  0
 27 28  2  0
 28 29  1  0
 29 30  2  0
 30 31  1  0
 31 32  1  0
 32 33  2  0
 33 34  1  0
 34 35  2  0
 35 36  1  0
 36 37  2  0
 26 38  1  0
 38 39  2  0
 39 40  1  0
 40 41  2  0
 41 42  1  0
 42 43  2  0
 43 44  1  0
 44 45  2  0
 45 46  1  0
 46 47  2  0
 47 48  1  0
 48 49  2  0
 17 50  1  0
 50 51  2  0
  5 52  1  0
 52 53  2  0
 52 54  1  0
 54  2  1  0
 13  9  1  0
 50 14  1  0
 49 21  1  0
 44 24  1  0
 31 27  1  0
 37 32  1  0
 49 38  1  0
M  END
>  <Title>  (316) 
idAAMDgen7

$$$$

     RDKit          2D

 33 37  0  0  0  0  0  0  0  0999 V2000
    3.0000    0.0000    0.0000 C   0  0  0  0  0  0  0  0  0  0  0  0
    1.5000    0.0000    0.0000 C   0  0  0  0  0  0  0  0  0  0  0  0
    0.7500   -1.2990    0.0000 C   0  0  0  0  0  0  0  0  0  0  0  0
   -0.7500   -1.2990    0.0000 C   0  0  0  0  0  0  0  0  0  0  0  0
   -1.5000    0.0000    0.0000 C   0  0  0  0  0  0  0  0  0  0  0  0
   -3.0000    0.0000    0.0000 C   0  0  0  0  0  0  0  0  0  0  0  0
   -3.8817   -1.2135    0.0000 N   0  0  0  0  0  0  0  0  0  0  0  0
   -5.3083   -0.7500    0.0000 N   0  0  0  0  0  0  0  0  0  0  0  0
   -5.3083    0.7500    0.0000 N   0  0  0  0  0  0  0  0  0  0  0  0
   -3.8817    1.2135    0.0000 N   0  0  0  0  0  0  0  0  0  0  0  0
   -3.4182    2.6401    0.0000 C   0  0  0  0  0  0  0  0  0  0  0  0
   -4.2998    3.8536    0.0000 C   0  0  0  0  0  0  0  0  0  0  0  0
   -3.4182    5.0672    0.0000 C   0  0  0  0  0  0  0  0  0  0  0  0
   -1.9916    4.6036    0.0000 C   0  0  0  0  0  0  0  0  0  0  0  0
   -0.7780    5.4853    0.0000 C   0  0  0  0  0  0  0  0  0  0  0  0
   -0.9348    6.9771    0.0000 O   0  0  0  0  0  0  0  0  0  0  0  0
    0.5923    4.8752    0.0000 N   0  0  0  0  0  0  0  0  0  0  0  0
    1.8058    5.7569    0.0000 C   0  0  0  0  0  0  0  0  0  0  0  0
    1.8058    7.2569    0.0000 N   0  0  0  0  0  0  0  0  0  0  0  0
    3.2324    7.7204    0.0000 N   0  0  0  0  0  0  0  0  0  0  0  0
    4.1141    6.5069    0.0000 N   0  0  0  0  0  0  0  0  0  0  0  0
    3.2324    5.2934    0.0000 N   0  0  0  0  0  0  0  0  0  0  0  0
    3.6959    3.8668    0.0000 C   0  0  0  0  0  0  0  0  0  0  0  0
    2.8142    2.6533    0.0000 C   0  0  0  0  0  0  0  0  0  0  0  0
    3.6959    1.4397    0.0000 C   0  0  0  0  0  0  0  0  0  0  0  0
    5.1225    1.9033    0.0000 C   0  0  0  0  0  0  0  0  0  0  0  0
    6.3360    1.0216    0.0000 C   0  0  0  0  0  0  0  0  0  0  0  0
    5.1225    3.4033    0.0000 C   0  0  0  0  0  0  0  0  0  0  0  0
    6.3360    4.2849    0.0000 O   0  0  0  0  0  0  0  0  0  0  0  0
   -1.9916    3.1036    0.0000 C   0  0  0  0  0  0  0  0  0  0  0  0
   -0.7780    2.2220    0.0000 O   0  0  0  0  0  0  0  0  0  0  0  0
   -0.7500    1.2990    0.0000 C   0  0  0  0  0  0  0  0  0  0  0  0
    0.7500    1.2990    0.0000 C   0  0  0  0  0  0  0  0  0  0  0  0
  1  2  1  0
  2  3  2  0
  3  4  1  0
  4  5  2  0
  5  6  1  0
  6  7  2  0
  7  8  1  0
  8  9  2  0
  9 10  1  0
 10 11  1  0
 11 12  2  0
 12 13  1  0
 13 14  2  0
 14 15  1  0
 15 16  2  0
 15 17  1  0
 17 18  1  0
 18 19  2  0
 19 20  1  0
 20 21  2  0
 21 22  1  0
 22 23  1  0
 23 24  2  0
 24 25  1  0
 25 26  2  0
 26 27  1  0
 26 28  1  0
 28 29  2  0
 14 30  1  0
 30 31  2  0
  5 32  1  0
 32 33  1  0
 33  2  1  0
 10  6  1  0
 30 11  1  0
 22 18  1  0
 28 23  1  0
M  END
>  <Title>  (317) 
idAAMEgen7

$$$$

     RDKit          2D

 48 55  0  0  0  0  0  0  0  0999 V2000
    2.5177   -9.1212    0.0000 C   0  0  0  0  0  0  0  0  0  0  0  0
    1.0623   -8.7583    0.0000 C   0  0  0  0  0  0  0  0  0  0  0  0
    0.5004   -7.3675    0.0000 C   0  0  0  0  0  0  0  0  0  0  0  0
   -0.9960   -7.4722    0.0000 C   0  0  0  0  0  0  0  0  0  0  0  0
   -1.3588   -8.9276    0.0000 C   0  0  0  0  0  0  0  0  0  0  0  0
   -2.7496   -9.4895    0.0000 C   0  0  0  0  0  0  0  0  0  0  0  0
   -2.9584  -10.9749    0.0000 O   0  0  0  0  0  0  0  0  0  0  0  0
   -3.9316   -8.5660    0.0000 N   0  0  0  0  0  0  0  0  0  0  0  0
   -5.3224   -9.1280    0.0000 C   0  0  0  0  0  0  0  0  0  0  0  0
   -5.6853  -10.5834    0.0000 N   0  0  0  0  0  0  0  0  0  0  0  0
   -7.1816  -10.6880    0.0000 N   0  0  0  0  0  0  0  0  0  0  0  0
   -7.7435   -9.2973    0.0000 N   0  0  0  0  0  0  0  0  0  0  0  0
   -6.5945   -8.3331    0.0000 N   0  0  0  0  0  0  0  0  0  0  0  0
   -6.6991   -6.8367    0.0000 C   0  0  0  0  0  0  0  0  0  0  0  0
   -7.9712   -6.0419    0.0000 C   0  0  0  0  0  0  0  0  0  0  0  0
   -7.6083   -4.5864    0.0000 C   0  0  0  0  0  0  0  0  0  0  0  0
   -6.1120   -4.4818    0.0000 C   0  0  0  0  0  0  0  0  0  0  0  0
   -5.3171   -3.2097    0.0000 C   0  0  0  0  0  0  0  0  0  0  0  0
   -3.8499   -3.5216    0.0000 C   0  0  0  0  0  0  0  0  0  0  0  0
   -2.5254   -2.8174    0.0000 C   0  0  0  0  0  0  0  0  0  0  0  0
   -1.9635   -1.4266    0.0000 C   0  0  0  0  0  0  0  0  0  0  0  0
   -0.7500   -2.3083    0.0000 C   0  0  0  0  0  0  0  0  0  0  0  0
    0.7500   -2.3083    0.0000 C   0  0  0  0  0  0  0  0  0  0  0  0
    1.2135   -3.7348    0.0000 C   0  0  0  0  0  0  0  0  0  0  0  0
    0.3318   -4.9484    0.0000 N   0  0  0  0  0  0  0  0  0  0  0  0
    1.2135   -6.1619    0.0000 N   0  0  0  0  0  0  0  0  0  0  0  0
    2.6401   -5.6984    0.0000 N   0  0  0  0  0  0  0  0  0  0  0  0
    2.6401   -4.1984    0.0000 N   0  0  0  0  0  0  0  0  0  0  0  0
    3.8536   -3.3167    0.0000 C   0  0  0  0  0  0  0  0  0  0  0  0
    3.6968   -1.8249    0.0000 C   0  0  0  0  0  0  0  0  0  0  0  0
    4.9104   -0.9432    0.0000 C   0  0  0  0  0  0  0  0  0  0  0  0
    6.2807   -1.5533    0.0000 C   0  0  0  0  0  0  0  0  0  0  0  0
    6.4375   -3.0451    0.0000 C   0  0  0  0  0  0  0  0  0  0  0  0
    5.2240   -3.9268    0.0000 C   0  0  0  0  0  0  0  0  0  0  0  0
    1.9635   -1.4266    0.0000 C   0  0  0  0  0  0  0  0  0  0  0  0
    2.4271    0.0000    0.0000 C   0  0  0  0  0  0  0  0  0  0  0  0
    1.9635    1.4266    0.0000 C   0  0  0  0  0  0  0  0  0  0  0  0
    0.7500    2.3083    0.0000 C   0  0  0  0  0  0  0  0  0  0  0  0
   -0.7500    2.3083    0.0000 C   0  0  0  0  0  0  0  0  0  0  0  0
   -1.9635    1.4266    0.0000 C   0  0  0  0  0  0  0  0  0  0  0  0
   -2.4271    0.0000    0.0000 C   0  0  0  0  0  0  0  0  0  0  0  0
   -3.6991    0.7949    0.0000 N   0  0  0  0  0  0  0  0  0  0  0  0
   -5.1845    0.5861    0.0000 N   0  0  0  0  0  0  0  0  0  0  0  0
   -6.1882   -0.5286    0.0000 N   0  0  0  0  0  0  0  0  0  0  0  0
   -6.2406   -2.0277    0.0000 N   0  0  0  0  0  0  0  0  0  0  0  0
   -5.5500   -5.8725    0.0000 C   0  0  0  0  0  0  0  0  0  0  0  0
   -4.0946   -6.2354    0.0000 O   0  0  0  0  0  0  0  0  0  0  0  0
   -0.0868   -9.7225    0.0000 N   0  0  0  0  0  0  0  0  0  0  0  0
  1  2  1  0
  2  3  2  0
  3  4  1  0
  4  5  2  0
  5  6  1  0
  6  7  2  0
  6  8  1  0
  8  9  1  0
  9 10  2  0
 10 11  1  0
 11 12  2  0
 12 13  1  0
 13 14  1  0
 14 15  2  0
 15 16  1  0
 16 17  2  0
 17 18  1  0
 18 19  2  0
 19 20  1  0
 20 21  2  0
 21 22  1  0
 22 23  2  0
 23 24  1  0
 24 25  2  0
 25 26  1  0
 26 27  2  0
 27 28  1  0
 28 29  1  0
 29 30  2  0
 30 31  1  0
 31 32  2  0
 32 33  1  0
 33 34  2  0
 23 35  1  0
 35 36  2  0
 36 37  1  0
 37 38  2  0
 38 39  1  0
 39 40  2  0
 40 41  1  0
 41 42  2  0
 42 43  1  0
 43 44  2  0
 44 45  1  0
 17 46  1  0
 46 47  2  0
  5 48  1  0
 48  2  1  0
 13  9  1  0
 46 14  1  0
 45 18  1  0
 41 21  1  0
 28 24  1  0
 34 29  1  0
 45 35  1  0
M  END
>  <Title>  (318) 
idAAMFgen7

$$$$

     RDKit          2D

 17 18  0  0  0  0  0  0  0  0999 V2000
    2.4749    7.9650    0.0000 C   0  0  0  0  0  0  0  0  0  0  0  0
    1.9130    6.5742    0.0000 C   0  0  0  0  0  0  0  0  0  0  0  0
    2.8365    5.3922    0.0000 O   0  0  0  0  0  0  0  0  0  0  0  0
    0.4276    6.3655    0.0000 O   0  0  0  0  0  0  0  0  0  0  0  0
   -0.1343    4.9747    0.0000 C   0  0  0  0  0  0  0  0  0  0  0  0
    0.9804    3.9710    0.0000 C   0  0  0  0  0  0  0  0  0  0  0  0
    1.1892    2.4856    0.0000 C   0  0  0  0  0  0  0  0  0  0  0  0
    0.3943    1.2135    0.0000 C   0  0  0  0  0  0  0  0  0  0  0  0
    1.2760    0.0000    0.0000 C   0  0  0  0  0  0  0  0  0  0  0  0
    0.3943   -1.2135    0.0000 C   0  0  0  0  0  0  0  0  0  0  0  0
   -1.0323   -0.7500    0.0000 C   0  0  0  0  0  0  0  0  0  0  0  0
   -1.0323    0.7500    0.0000 C   0  0  0  0  0  0  0  0  0  0  0  0
   -2.4231    1.3119    0.0000 C   0  0  0  0  0  0  0  0  0  0  0  0
   -3.1273    2.6363    0.0000 N   0  0  0  0  0  0  0  0  0  0  0  0
   -2.8154    4.1036    0.0000 N   0  0  0  0  0  0  0  0  0  0  0  0
   -1.6334    5.0270    0.0000 C   0  0  0  0  0  0  0  0  0  0  0  0
   -2.0969    6.4536    0.0000 O   0  0  0  0  0  0  0  0  0  0  0  0
  1  2  1  0
  2  3  2  0
  2  4  1  0
  4  5  1  0
  5  6  2  0
  6  7  1  0
  7  8  2  0
  8  9  1  0
  9 10  2  0
 10 11  1  0
 11 12  2  0
 12 13  1  0
 13 14  2  0
 14 15  1  0
 15 16  2  0
 16 17  1  0
 16  5  1  0
 12  8  1  0
M  END
>  <Title>  (319) 
idAAMGgen7

$$$$

     RDKit          2D

 44 50  0  0  0  0  0  0  0  0999 V2000
    3.0000    0.0000    0.0000 C   0  0  0  0  0  0  0  0  0  0  0  0
    1.5000    0.0000    0.0000 C   0  0  0  0  0  0  0  0  0  0  0  0
    0.7500    1.2990    0.0000 C   0  0  0  0  0  0  0  0  0  0  0  0
   -0.7500    1.2990    0.0000 C   0  0  0  0  0  0  0  0  0  0  0  0
   -1.5000    0.0000    0.0000 C   0  0  0  0  0  0  0  0  0  0  0  0
   -3.0000    0.0000    0.0000 C   0  0  0  0  0  0  0  0  0  0  0  0
   -3.8817   -1.2135    0.0000 N   0  0  0  0  0  0  0  0  0  0  0  0
   -5.3083   -0.7500    0.0000 N   0  0  0  0  0  0  0  0  0  0  0  0
   -5.3083    0.7500    0.0000 N   0  0  0  0  0  0  0  0  0  0  0  0
   -3.8817    1.2135    0.0000 N   0  0  0  0  0  0  0  0  0  0  0  0
   -3.4182    2.6401    0.0000 C   0  0  0  0  0  0  0  0  0  0  0  0
   -1.9509    2.9520    0.0000 C   0  0  0  0  0  0  0  0  0  0  0  0
   -1.4874    4.3786    0.0000 C   0  0  0  0  0  0  0  0  0  0  0  0
   -2.4911    5.4933    0.0000 C   0  0  0  0  0  0  0  0  0  0  0  0
   -2.0276    6.9199    0.0000 C   0  0  0  0  0  0  0  0  0  0  0  0
   -0.5604    7.2317    0.0000 C   0  0  0  0  0  0  0  0  0  0  0  0
   -0.0968    8.6583    0.0000 C   0  0  0  0  0  0  0  0  0  0  0  0
   -1.1005    9.7730    0.0000 C   0  0  0  0  0  0  0  0  0  0  0  0
   -2.5677    9.4612    0.0000 C   0  0  0  0  0  0  0  0  0  0  0  0
   -3.0313    8.0346    0.0000 C   0  0  0  0  0  0  0  0  0  0  0  0
   -3.9583    5.1814    0.0000 C   0  0  0  0  0  0  0  0  0  0  0  0
   -4.4218    3.7548    0.0000 C   0  0  0  0  0  0  0  0  0  0  0  0
   -5.8891    3.4430    0.0000 C   0  0  0  0  0  0  0  0  0  0  0  0
   -6.8928    4.5577    0.0000 C   0  0  0  0  0  0  0  0  0  0  0  0
   -8.3600    4.2458    0.0000 C   0  0  0  0  0  0  0  0  0  0  0  0
   -8.8235    2.8192    0.0000 C   0  0  0  0  0  0  0  0  0  0  0  0
  -10.2907    2.5074    0.0000 C   0  0  0  0  0  0  0  0  0  0  0  0
  -11.2944    3.6221    0.0000 C   0  0  0  0  0  0  0  0  0  0  0  0
  -12.7617    3.3102    0.0000 C   0  0  0  0  0  0  0  0  0  0  0  0
  -13.2252    1.8836    0.0000 C   0  0  0  0  0  0  0  0  0  0  0  0
  -14.6924    1.5718    0.0000 C   0  0  0  0  0  0  0  0  0  0  0  0
  -15.6961    2.6865    0.0000 C   0  0  0  0  0  0  0  0  0  0  0  0
  -17.1633    2.3746    0.0000 C   0  0  0  0  0  0  0  0  0  0  0  0
  -17.6268    0.9480    0.0000 C   0  0  0  0  0  0  0  0  0  0  0  0
  -16.6231   -0.1667    0.0000 C   0  0  0  0  0  0  0  0  0  0  0  0
  -15.1559    0.1452    0.0000 C   0  0  0  0  0  0  0  0  0  0  0  0
  -12.2215    0.7689    0.0000 C   0  0  0  0  0  0  0  0  0  0  0  0
  -10.7543    1.0808    0.0000 C   0  0  0  0  0  0  0  0  0  0  0  0
   -7.8198    1.7045    0.0000 C   0  0  0  0  0  0  0  0  0  0  0  0
   -8.2833    0.2779    0.0000 O   0  0  0  0  0  0  0  0  0  0  0  0
   -6.3526    2.0164    0.0000 N   0  0  0  0  0  0  0  0  0  0  0  0
   -0.7500   -1.2990    0.0000 C   0  0  0  0  0  0  0  0  0  0  0  0
   -1.5000   -2.5981    0.0000 O   0  0  0  0  0  0  0  0  0  0  0  0
    0.7500   -1.2990    0.0000 N   0  0  0  0  0  0  0  0  0  0  0  0
  1  2  1  0
  2  3  2  0
  3  4  1  0
  4  5  2  0
  5  6  1  0
  6  7  2  0
  7  8  1  0
  8  9  2  0
  9 10  1  0
 10 11  1  0
 11 12  2  0
 12 13  1  0
 13 14  2  0
 14 15  1  0
 15 16  2  0
 16 17  1  0
 17 18  2  0
 18 19  1  0
 19 20  2  0
 14 21  1  0
 21 22  2  0
 22 23  1  0
 23 24  2  0
 24 25  1  0
 25 26  2  0
 26 27  1  0
 27 28  2  0
 28 29  1  0
 29 30  2  0
 30 31  1  0
 31 32  2  0
 32 33  1  0
 33 34  2  0
 34 35  1  0
 35 36  2  0
 30 37  1  0
 37 38  2  0
 26 39  1  0
 39 40  2  0
 39 41  1  0
  5 42  1  0
 42 43  2  0
 42 44  1  0
 44  2  1  0
 10  6  1  0
 22 11  1  0
 41 23  1  0
 20 15  1  0
 38 27  1  0
 36 31  1  0
M  END
>  <Title>  (320) 
idAAMHgen7

$$$$

     RDKit          2D

 40 44  0  0  0  0  0  0  0  0999 V2000
    6.8176   -4.9533    0.0000 C   0  0  0  0  0  0  0  0  0  0  0  0
    5.6041   -4.0716    0.0000 C   0  0  0  0  0  0  0  0  0  0  0  0
    5.7609   -2.5798    0.0000 C   0  0  0  0  0  0  0  0  0  0  0  0
    4.5474   -1.6982    0.0000 C   0  0  0  0  0  0  0  0  0  0  0  0
    3.1771   -2.3083    0.0000 C   0  0  0  0  0  0  0  0  0  0  0  0
    1.9635   -1.4266    0.0000 N   0  0  0  0  0  0  0  0  0  0  0  0
    2.4271    0.0000    0.0000 N   0  0  0  0  0  0  0  0  0  0  0  0
    1.9635    1.4266    0.0000 N   0  0  0  0  0  0  0  0  0  0  0  0
    0.7500    2.3083    0.0000 N   0  0  0  0  0  0  0  0  0  0  0  0
   -0.7500    2.3083    0.0000 C   0  0  0  0  0  0  0  0  0  0  0  0
   -0.6827    3.8068    0.0000 N   0  0  0  0  0  0  0  0  0  0  0  0
   -1.8123    4.7937    0.0000 C   0  0  0  0  0  0  0  0  0  0  0  0
   -1.4133    6.2396    0.0000 O   0  0  0  0  0  0  0  0  0  0  0  0
   -3.2882    4.5258    0.0000 N   0  0  0  0  0  0  0  0  0  0  0  0
   -3.9990    3.2049    0.0000 C   0  0  0  0  0  0  0  0  0  0  0  0
   -5.4975    3.2722    0.0000 O   0  0  0  0  0  0  0  0  0  0  0  0
   -3.4095    1.8256    0.0000 C   0  0  0  0  0  0  0  0  0  0  0  0
   -4.3964    0.6960    0.0000 C   0  0  0  0  0  0  0  0  0  0  0  0
   -5.8681    0.9859    0.0000 C   0  0  0  0  0  0  0  0  0  0  0  0
   -6.8550   -0.1437    0.0000 C   0  0  0  0  0  0  0  0  0  0  0  0
   -8.3516   -0.2446    0.0000 C   0  0  0  0  0  0  0  0  0  0  0  0
   -9.4812    0.7423    0.0000 O   0  0  0  0  0  0  0  0  0  0  0  0
   -8.2507   -1.7412    0.0000 N   0  0  0  0  0  0  0  0  0  0  0  0
   -6.7541   -1.6403    0.0000 C   0  0  0  0  0  0  0  0  0  0  0  0
   -5.6245   -2.6272    0.0000 O   0  0  0  0  0  0  0  0  0  0  0  0
   -1.9635    1.4266    0.0000 C   0  0  0  0  0  0  0  0  0  0  0  0
   -2.4271    0.0000    0.0000 N   0  0  0  0  0  0  0  0  0  0  0  0
   -1.9635   -1.4266    0.0000 N   0  0  0  0  0  0  0  0  0  0  0  0
   -0.7500   -2.3083    0.0000 N   0  0  0  0  0  0  0  0  0  0  0  0
    0.7500   -2.3083    0.0000 C   0  0  0  0  0  0  0  0  0  0  0  0
    1.2135   -3.7348    0.0000 C   0  0  0  0  0  0  0  0  0  0  0  0
    2.6807   -4.0467    0.0000 C   0  0  0  0  0  0  0  0  0  0  0  0
    3.1443   -5.4733    0.0000 C   0  0  0  0  0  0  0  0  0  0  0  0
    2.1406   -6.5880    0.0000 C   0  0  0  0  0  0  0  0  0  0  0  0
    2.6041   -8.0146    0.0000 C   0  0  0  0  0  0  0  0  0  0  0  0
    0.6734   -6.2761    0.0000 C   0  0  0  0  0  0  0  0  0  0  0  0
   -0.3303   -7.3909    0.0000 O   0  0  0  0  0  0  0  0  0  0  0  0
    0.2098   -4.8496    0.0000 N   0  0  0  0  0  0  0  0  0  0  0  0
    3.0203   -3.8000    0.0000 N   0  0  0  0  0  0  0  0  0  0  0  0
    4.2338   -4.6817    0.0000 C   0  0  0  0  0  0  0  0  0  0  0  0
  1  2  1  0
  2  3  2  0
  3  4  1  0
  4  5  2  0
  5  6  1  0
  6  7  1  0
  7  8  2  0
  8  9  1  0
  9 10  2  0
 10 11  1  0
 11 12  1  0
 12 13  2  0
 12 14  1  0
 14 15  1  0
 15 16  2  0
 15 17  1  0
 17 18  2  3
 18 19  1  0
 19 20  2  3
 20 21  1  0
 21 22  2  0
 21 23  1  0
 23 24  1  0
 24 25  2  0
 17 26  1  0
 26 27  1  0
 27 28  2  0
 28 29  1  0
 29 30  2  0
 30 31  1  0
 31 32  2  0
 32 33  1  0
 33 34  2  0
 34 35  1  0
 34 36  1  0
 36 37  2  0
 36 38  1  0
  5 39  1  0
 39 40  1  0
 40  2  1  0
 30  6  1  0
 38 31  1  0
 26 10  1  0
 24 20  1  0
M  END
>  <Title>  (321) 
idAAMIgen7

$$$$

     RDKit          2D

 31 35  0  0  0  0  0  0  0  0999 V2000
    1.2443    4.4273    0.0000 C   0  0  0  0  0  0  0  0  0  0  0  0
    2.6147    3.8172    0.0000 C   0  0  0  0  0  0  0  0  0  0  0  0
    2.9265    2.3500    0.0000 C   0  0  0  0  0  0  0  0  0  0  0  0
    4.4183    2.1932    0.0000 C   0  0  0  0  0  0  0  0  0  0  0  0
    5.0284    3.5635    0.0000 C   0  0  0  0  0  0  0  0  0  0  0  0
    6.4956    3.8754    0.0000 C   0  0  0  0  0  0  0  0  0  0  0  0
    7.1057    5.2457    0.0000 N   0  0  0  0  0  0  0  0  0  0  0  0
    8.5975    5.0889    0.0000 N   0  0  0  0  0  0  0  0  0  0  0  0
    8.9094    3.6217    0.0000 N   0  0  0  0  0  0  0  0  0  0  0  0
    7.6104    2.8717    0.0000 N   0  0  0  0  0  0  0  0  0  0  0  0
    7.4536    1.3799    0.0000 C   0  0  0  0  0  0  0  0  0  0  0  0
    8.5683    0.3762    0.0000 C   0  0  0  0  0  0  0  0  0  0  0  0
    7.9582   -0.9941    0.0000 C   0  0  0  0  0  0  0  0  0  0  0  0
    6.4664   -0.8373    0.0000 C   0  0  0  0  0  0  0  0  0  0  0  0
    5.4627   -1.9520    0.0000 C   0  0  0  0  0  0  0  0  0  0  0  0
    5.9262   -3.3786    0.0000 O   0  0  0  0  0  0  0  0  0  0  0  0
    3.9955   -1.6402    0.0000 N   0  0  0  0  0  0  0  0  0  0  0  0
    2.9918   -2.7549    0.0000 C   0  0  0  0  0  0  0  0  0  0  0  0
    3.3037   -4.2221    0.0000 N   0  0  0  0  0  0  0  0  0  0  0  0
    2.0046   -4.9721    0.0000 N   0  0  0  0  0  0  0  0  0  0  0  0
    0.8899   -3.9684    0.0000 N   0  0  0  0  0  0  0  0  0  0  0  0
    1.5000   -2.5981    0.0000 N   0  0  0  0  0  0  0  0  0  0  0  0
    0.7500   -1.2990    0.0000 C   0  0  0  0  0  0  0  0  0  0  0  0
    1.5000    0.0000    0.0000 C   0  0  0  0  0  0  0  0  0  0  0  0
    0.7500    1.2990    0.0000 C   0  0  0  0  0  0  0  0  0  0  0  0
   -0.7500    1.2990    0.0000 C   0  0  0  0  0  0  0  0  0  0  0  0
   -1.5000    0.0000    0.0000 C   0  0  0  0  0  0  0  0  0  0  0  0
   -0.7500   -1.2990    0.0000 C   0  0  0  0  0  0  0  0  0  0  0  0
    6.1545    0.6299    0.0000 C   0  0  0  0  0  0  0  0  0  0  0  0
    4.7842    1.2400    0.0000 O   0  0  0  0  0  0  0  0  0  0  0  0
    3.9137    4.5672    0.0000 C   0  0  0  0  0  0  0  0  0  0  0  0
  1  2  1  0
  2  3  2  0
  3  4  1  0
  4  5  2  0
  5  6  1  0
  6  7  2  0
  7  8  1  0
  8  9  2  0
  9 10  1  0
 10 11  1  0
 11 12  2  0
 12 13  1  0
 13 14  2  0
 14 15  1  0
 15 16  2  0
 15 17  1  0
 17 18  1  0
 18 19  2  0
 19 20  1  0
 20 21  2  0
 21 22  1  0
 22 23  1  0
 23 24  2  0
 24 25  1  0
 25 26  2  0
 26 27  1  0
 27 28  2  0
 14 29  1  0
 29 30  2  0
  5 31  1  0
 31  2  1  0
 10  6  1  0
 29 11  1  0
 22 18  1  0
 28 23  1  0
M  END
>  <Title>  (322) 
idAAMJgen7

$$$$

     RDKit          2D

 27 30  0  0  0  0  0  0  0  0999 V2000
  -10.1624    4.2767    0.0000 C   0  0  0  0  0  0  0  0  0  0  0  0
   -8.9488    3.3950    0.0000 C   0  0  0  0  0  0  0  0  0  0  0  0
   -9.1056    1.9033    0.0000 C   0  0  0  0  0  0  0  0  0  0  0  0
   -7.8921    1.0216    0.0000 C   0  0  0  0  0  0  0  0  0  0  0  0
   -6.5218    1.6317    0.0000 C   0  0  0  0  0  0  0  0  0  0  0  0
   -5.3083    0.7500    0.0000 C   0  0  0  0  0  0  0  0  0  0  0  0
   -5.3083   -0.7500    0.0000 N   0  0  0  0  0  0  0  0  0  0  0  0
   -3.8817   -1.2135    0.0000 N   0  0  0  0  0  0  0  0  0  0  0  0
   -3.0000    0.0000    0.0000 N   0  0  0  0  0  0  0  0  0  0  0  0
   -3.8817    1.2135    0.0000 N   0  0  0  0  0  0  0  0  0  0  0  0
   -3.4182    2.6401    0.0000 C   0  0  0  0  0  0  0  0  0  0  0  0
   -4.2998    3.8536    0.0000 C   0  0  0  0  0  0  0  0  0  0  0  0
   -3.4182    5.0672    0.0000 N   0  0  0  0  0  0  0  0  0  0  0  0
   -1.9916    4.6036    0.0000 N   0  0  0  0  0  0  0  0  0  0  0  0
   -1.9916    3.1036    0.0000 N   0  0  0  0  0  0  0  0  0  0  0  0
   -0.7780    2.2220    0.0000 C   0  0  0  0  0  0  0  0  0  0  0  0
   -0.9348    0.7302    0.0000 C   0  0  0  0  0  0  0  0  0  0  0  0
    0.2787   -0.1515    0.0000 C   0  0  0  0  0  0  0  0  0  0  0  0
    1.6490    0.4586    0.0000 C   0  0  0  0  0  0  0  0  0  0  0  0
    2.8625   -0.4231    0.0000 C   0  0  0  0  0  0  0  0  0  0  0  0
    2.7057   -1.9149    0.0000 O   0  0  0  0  0  0  0  0  0  0  0  0
    4.2329    0.1870    0.0000 N   0  0  0  0  0  0  0  0  0  0  0  0
    5.4464   -0.6946    0.0000 O   0  0  0  0  0  0  0  0  0  0  0  0
    1.8058    1.9504    0.0000 C   0  0  0  0  0  0  0  0  0  0  0  0
    0.5923    2.8321    0.0000 C   0  0  0  0  0  0  0  0  0  0  0  0
   -6.3650    3.1235    0.0000 C   0  0  0  0  0  0  0  0  0  0  0  0
   -7.5785    4.0051    0.0000 C   0  0  0  0  0  0  0  0  0  0  0  0
  1  2  1  0
  2  3  2  0
  3  4  1  0
  4  5  2  0
  5  6  1  0
  6  7  2  0
  7  8  1  0
  8  9  2  0
  9 10  1  0
 10 11  1  0
 11 12  2  0
 12 13  1  0
 13 14  2  0
 14 15  1  0
 15 16  1  0
 16 17  2  0
 17 18  1  0
 18 19  2  0
 19 20  1  0
 20 21  2  0
 20 22  1  0
 22 23  1  0
 19 24  1  0
 24 25  1  0
  5 26  1  0
 26 27  2  0
 27  2  1  0
 10  6  1  0
 15 11  1  0
 25 16  1  0
M  END
>  <Title>  (323) 
idAAMKgen7

$$$$

     RDKit          2D

 11 12  0  0  0  0  0  0  0  0999 V2000
   -1.5000   -5.1962    0.0000 C   0  0  0  0  0  0  0  0  0  0  0  0
   -0.7500   -3.8971    0.0000 C   0  0  0  0  0  0  0  0  0  0  0  0
    0.7500   -3.8971    0.0000 C   0  0  0  0  0  0  0  0  0  0  0  0
    1.5000   -2.5981    0.0000 C   0  0  0  0  0  0  0  0  0  0  0  0
    0.7500   -1.2990    0.0000 C   0  0  0  0  0  0  0  0  0  0  0  0
    1.5000    0.0000    0.0000 C   0  0  0  0  0  0  0  0  0  0  0  0
    0.7500    1.2990    0.0000 C   0  0  0  0  0  0  0  0  0  0  0  0
   -0.7500    1.2990    0.0000 C   0  0  0  0  0  0  0  0  0  0  0  0
   -1.5000    0.0000    0.0000 C   0  0  0  0  0  0  0  0  0  0  0  0
   -0.7500   -1.2990    0.0000 C   0  0  0  0  0  0  0  0  0  0  0  0
   -1.5000   -2.5981    0.0000 N   0  0  0  0  0  0  0  0  0  0  0  0
  1  2  1  0
  2  3  2  0
  3  4  1  0
  4  5  2  0
  5  6  1  0
  6  7  2  0
  7  8  1  0
  8  9  2  0
  9 10  1  0
 10 11  2  0
 11  2  1  0
 10  5  1  0
M  END
>  <Title>  (324) 
idAAMLgen7

$$$$

     RDKit          2D

 37 42  0  0  0  0  0  0  0  0999 V2000
    3.7500   -1.2990    0.0000 C   0  0  0  0  0  0  0  0  0  0  0  0
    3.0000    0.0000    0.0000 O   0  0  0  0  0  0  0  0  0  0  0  0
    1.5000    0.0000    0.0000 C   0  0  0  0  0  0  0  0  0  0  0  0
    0.7500   -1.2990    0.0000 C   0  0  0  0  0  0  0  0  0  0  0  0
   -0.7500   -1.2990    0.0000 C   0  0  0  0  0  0  0  0  0  0  0  0
   -1.5000    0.0000    0.0000 C   0  0  0  0  0  0  0  0  0  0  0  0
   -3.0000    0.0000    0.0000 C   0  0  0  0  0  0  0  0  0  0  0  0
   -3.8817   -1.2135    0.0000 N   0  0  0  0  0  0  0  0  0  0  0  0
   -5.3083   -0.7500    0.0000 N   0  0  0  0  0  0  0  0  0  0  0  0
   -5.3083    0.7500    0.0000 N   0  0  0  0  0  0  0  0  0  0  0  0
   -3.8817    1.2135    0.0000 N   0  0  0  0  0  0  0  0  0  0  0  0
   -3.4182    2.6401    0.0000 C   0  0  0  0  0  0  0  0  0  0  0  0
   -1.9509    2.9520    0.0000 C   0  0  0  0  0  0  0  0  0  0  0  0
   -1.4874    4.3786    0.0000 C   0  0  0  0  0  0  0  0  0  0  0  0
   -2.4911    5.4933    0.0000 C   0  0  0  0  0  0  0  0  0  0  0  0
   -2.0276    6.9199    0.0000 C   0  0  0  0  0  0  0  0  0  0  0  0
   -0.5604    7.2317    0.0000 C   0  0  0  0  0  0  0  0  0  0  0  0
   -0.0968    8.6583    0.0000 C   0  0  0  0  0  0  0  0  0  0  0  0
   -1.1005    9.7730    0.0000 C   0  0  0  0  0  0  0  0  0  0  0  0
   -2.5677    9.4612    0.0000 C   0  0  0  0  0  0  0  0  0  0  0  0
   -3.0313    8.0346    0.0000 C   0  0  0  0  0  0  0  0  0  0  0  0
   -3.9583    5.1814    0.0000 C   0  0  0  0  0  0  0  0  0  0  0  0
   -4.4218    3.7548    0.0000 C   0  0  0  0  0  0  0  0  0  0  0  0
   -5.8891    3.4430    0.0000 C   0  0  0  0  0  0  0  0  0  0  0  0
   -6.8928    4.5577    0.0000 C   0  0  0  0  0  0  0  0  0  0  0  0
   -8.3600    4.2458    0.0000 C   0  0  0  0  0  0  0  0  0  0  0  0
   -8.8235    2.8192    0.0000 C   0  0  0  0  0  0  0  0  0  0  0  0
  -10.2907    2.5074    0.0000 C   0  0  0  0  0  0  0  0  0  0  0  0
  -11.2944    3.6221    0.0000 C   0  0  0  0  0  0  0  0  0  0  0  0
  -12.7617    3.3102    0.0000 C   0  0  0  0  0  0  0  0  0  0  0  0
  -13.2252    1.8836    0.0000 C   0  0  0  0  0  0  0  0  0  0  0  0
  -12.2215    0.7689    0.0000 C   0  0  0  0  0  0  0  0  0  0  0  0
  -10.7543    1.0808    0.0000 C   0  0  0  0  0  0  0  0  0  0  0  0
   -7.8198    1.7045    0.0000 C   0  0  0  0  0  0  0  0  0  0  0  0
   -6.3526    2.0164    0.0000 C   0  0  0  0  0  0  0  0  0  0  0  0
   -0.7500    1.2990    0.0000 C   0  0  0  0  0  0  0  0  0  0  0  0
    0.7500    1.2990    0.0000 C   0  0  0  0  0  0  0  0  0  0  0  0
  1  2  1  0
  2  3  1  0
  3  4  2  0
  4  5  1  0
  5  6  2  0
  6  7  1  0
  7  8  2  0
  8  9  1  0
  9 10  2  0
 10 11  1  0
 11 12  1  0
 12 13  2  0
 13 14  1  0
 14 15  2  0
 15 16  1  0
 16 17  2  0
 17 18  1  0
 18 19  2  0
 19 20  1  0
 20 21  2  0
 15 22  1  0
 22 23  2  0
 23 24  1  0
 24 25  2  0
 25 26  1  0
 26 27  2  0
 27 28  1  0
 28 29  2  0
 29 30  1  0
 30 31  2  0
 31 32  1  0
 32 33  2  0
 27 34  1  0
 34 35  2  0
  6 36  1  0
 36 37  2  0
 37  3  1  0
 11  7  1  0
 23 12  1  0
 35 24  1  0
 21 16  1  0
 33 28  1  0
M  END
>  <Title>  (325) 
idAAMMgen7

$$$$

     RDKit          2D

 25 28  0  0  0  0  0  0  0  0999 V2000
    3.0000    0.0000    0.0000 C   0  0  0  0  0  0  0  0  0  0  0  0
    1.5000    0.0000    0.0000 C   0  0  0  0  0  0  0  0  0  0  0  0
    0.7500   -1.2990    0.0000 C   0  0  0  0  0  0  0  0  0  0  0  0
   -0.7500   -1.2990    0.0000 C   0  0  0  0  0  0  0  0  0  0  0  0
   -1.5000    0.0000    0.0000 C   0  0  0  0  0  0  0  0  0  0  0  0
   -3.0000    0.0000    0.0000 N   0  0  0  0  0  0  0  0  0  0  0  0
   -3.7500    1.2990    0.0000 N   0  0  0  0  0  0  0  0  0  0  0  0
   -5.2500    1.2990    0.0000 N   0  0  0  0  0  0  0  0  0  0  0  0
   -6.0000    0.0000    0.0000 N   0  0  0  0  0  0  0  0  0  0  0  0
   -5.2500   -1.2990    0.0000 N   0  0  0  0  0  0  0  0  0  0  0  0
   -3.7500   -1.2990    0.0000 N   0  0  0  0  0  0  0  0  0  0  0  0
   -3.0000   -2.5981    0.0000 C   0  0  0  0  0  0  0  0  0  0  0  0
   -3.7500   -3.8971    0.0000 C   0  0  0  0  0  0  0  0  0  0  0  0
   -3.0000   -5.1962    0.0000 C   0  0  0  0  0  0  0  0  0  0  0  0
   -1.5000   -5.1962    0.0000 C   0  0  0  0  0  0  0  0  0  0  0  0
   -0.7500   -6.4952    0.0000 C   0  0  0  0  0  0  0  0  0  0  0  0
   -1.5000   -7.7942    0.0000 C   0  0  0  0  0  0  0  0  0  0  0  0
   -0.7500   -9.0933    0.0000 C   0  0  0  0  0  0  0  0  0  0  0  0
    0.7500   -9.0933    0.0000 C   0  0  0  0  0  0  0  0  0  0  0  0
    1.5000   -7.7942    0.0000 C   0  0  0  0  0  0  0  0  0  0  0  0
    0.7500   -6.4952    0.0000 C   0  0  0  0  0  0  0  0  0  0  0  0
   -0.7500   -3.8971    0.0000 C   0  0  0  0  0  0  0  0  0  0  0  0
   -1.5000   -2.5981    0.0000 C   0  0  0  0  0  0  0  0  0  0  0  0
   -0.7500    1.2990    0.0000 C   0  0  0  0  0  0  0  0  0  0  0  0
    0.7500    1.2990    0.0000 C   0  0  0  0  0  0  0  0  0  0  0  0
  1  2  1  0
  2  3  2  0
  3  4  1  0
  4  5  2  0
  5  6  1  0
  6  7  1  0
  7  8  2  0
  8  9  1  0
  9 10  2  0
 10 11  1  0
 11 12  1  0
 12 13  2  0
 13 14  1  0
 14 15  2  0
 15 16  1  0
 16 17  2  0
 17 18  1  0
 18 19  2  0
 19 20  1  0
 20 21  2  0
 15 22  1  0
 22 23  2  0
  5 24  1  0
 24 25  2  0
 25  2  1  0
 11  6  1  0
 23 12  1  0
 21 16  1  0
M  END
>  <Title>  (326) 
idAAMNgen7

$$$$

     RDKit          2D

 22 24  0  0  0  0  0  0  0  0999 V2000
    5.2500   -1.2990    0.0000 C   0  0  0  0  0  0  0  0  0  0  0  0
    3.7500   -1.2990    0.0000 C   0  0  0  0  0  0  0  0  0  0  0  0
    3.0000   -2.5981    0.0000 O   0  0  0  0  0  0  0  0  0  0  0  0
    3.0000    0.0000    0.0000 O   0  0  0  0  0  0  0  0  0  0  0  0
    1.5000    0.0000    0.0000 C   0  0  0  0  0  0  0  0  0  0  0  0
    0.7500   -1.2990    0.0000 C   0  0  0  0  0  0  0  0  0  0  0  0
   -0.7500   -1.2990    0.0000 C   0  0  0  0  0  0  0  0  0  0  0  0
   -1.5000    0.0000    0.0000 C   0  0  0  0  0  0  0  0  0  0  0  0
   -3.0000    0.0000    0.0000 C   0  0  0  0  0  0  0  0  0  0  0  0
   -3.8817    1.2135    0.0000 N   0  0  0  0  0  0  0  0  0  0  0  0
   -5.3083    0.7500    0.0000 N   0  0  0  0  0  0  0  0  0  0  0  0
   -5.3083   -0.7500    0.0000 N   0  0  0  0  0  0  0  0  0  0  0  0
   -3.8817   -1.2135    0.0000 N   0  0  0  0  0  0  0  0  0  0  0  0
   -3.4182   -2.6401    0.0000 C   0  0  0  0  0  0  0  0  0  0  0  0
   -1.9509   -2.9520    0.0000 C   0  0  0  0  0  0  0  0  0  0  0  0
   -1.4874   -4.3786    0.0000 C   0  0  0  0  0  0  0  0  0  0  0  0
   -2.4911   -5.4933    0.0000 C   0  0  0  0  0  0  0  0  0  0  0  0
   -3.9583   -5.1814    0.0000 C   0  0  0  0  0  0  0  0  0  0  0  0
   -4.4218   -3.7548    0.0000 C   0  0  0  0  0  0  0  0  0  0  0  0
   -0.7500    1.2990    0.0000 C   0  0  0  0  0  0  0  0  0  0  0  0
   -1.5000    2.5981    0.0000 O   0  0  0  0  0  0  0  0  0  0  0  0
    0.7500    1.2990    0.0000 N   0  0  0  0  0  0  0  0  0  0  0  0
  1  2  1  0
  2  3  2  0
  2  4  1  0
  4  5  1  0
  5  6  2  0
  6  7  1  0
  7  8  2  0
  8  9  1  0
  9 10  2  0
 10 11  1  0
 11 12  2  0
 12 13  1  0
 13 14  1  0
 14 15  2  0
 15 16  1  0
 16 17  2  0
 17 18  1  0
 18 19  2  0
  8 20  1  0
 20 21  2  0
 20 22  1  0
 22  5  1  0
 13  9  1  0
 19 14  1  0
M  END
>  <Title>  (327) 
idAAMOgen7

$$$$

     RDKit          2D

 31 35  0  0  0  0  0  0  0  0999 V2000
    3.0000    0.0000    0.0000 C   0  0  0  0  0  0  0  0  0  0  0  0
    1.5000    0.0000    0.0000 C   0  0  0  0  0  0  0  0  0  0  0  0
    0.7500   -1.2990    0.0000 C   0  0  0  0  0  0  0  0  0  0  0  0
   -0.7500   -1.2990    0.0000 C   0  0  0  0  0  0  0  0  0  0  0  0
   -1.5000    0.0000    0.0000 C   0  0  0  0  0  0  0  0  0  0  0  0
   -3.0000    0.0000    0.0000 C   0  0  0  0  0  0  0  0  0  0  0  0
   -3.8817   -1.2135    0.0000 N   0  0  0  0  0  0  0  0  0  0  0  0
   -5.3083   -0.7500    0.0000 N   0  0  0  0  0  0  0  0  0  0  0  0
   -5.3083    0.7500    0.0000 N   0  0  0  0  0  0  0  0  0  0  0  0
   -3.8817    1.2135    0.0000 N   0  0  0  0  0  0  0  0  0  0  0  0
   -3.4182    2.6401    0.0000 C   0  0  0  0  0  0  0  0  0  0  0  0
   -1.9509    2.9520    0.0000 C   0  0  0  0  0  0  0  0  0  0  0  0
   -1.4874    4.3786    0.0000 C   0  0  0  0  0  0  0  0  0  0  0  0
   -2.4911    5.4933    0.0000 C   0  0  0  0  0  0  0  0  0  0  0  0
   -2.0276    6.9199    0.0000 C   0  0  0  0  0  0  0  0  0  0  0  0
   -3.0313    8.0346    0.0000 C   0  0  0  0  0  0  0  0  0  0  0  0
   -2.5677    9.4612    0.0000 C   0  0  0  0  0  0  0  0  0  0  0  0
   -1.1005    9.7730    0.0000 C   0  0  0  0  0  0  0  0  0  0  0  0
   -0.0968    8.6583    0.0000 C   0  0  0  0  0  0  0  0  0  0  0  0
   -0.5604    7.2317    0.0000 C   0  0  0  0  0  0  0  0  0  0  0  0
    0.4433    6.1170    0.0000 C   0  0  0  0  0  0  0  0  0  0  0  0
    1.9106    6.4289    0.0000 C   0  0  0  0  0  0  0  0  0  0  0  0
    2.9143    5.3142    0.0000 C   0  0  0  0  0  0  0  0  0  0  0  0
    2.4507    3.8876    0.0000 C   0  0  0  0  0  0  0  0  0  0  0  0
    0.9835    3.5757    0.0000 C   0  0  0  0  0  0  0  0  0  0  0  0
   -0.0202    4.6904    0.0000 C   0  0  0  0  0  0  0  0  0  0  0  0
   -3.9583    5.1814    0.0000 C   0  0  0  0  0  0  0  0  0  0  0  0
   -4.9620    6.2961    0.0000 O   0  0  0  0  0  0  0  0  0  0  0  0
   -4.4218    3.7548    0.0000 N   0  0  0  0  0  0  0  0  0  0  0  0
   -0.7500    1.2990    0.0000 C   0  0  0  0  0  0  0  0  0  0  0  0
    0.7500    1.2990    0.0000 C   0  0  0  0  0  0  0  0  0  0  0  0
  1  2  1  0
  2  3  2  0
  3  4  1  0
  4  5  2  0
  5  6  1  0
  6  7  2  0
  7  8  1  0
  8  9  2  0
  9 10  1  0
 10 11  1  0
 11 12  2  0
 12 13  1  0
 13 14  2  0
 14 15  1  0
 15 16  2  0
 16 17  1  0
 17 18  2  0
 18 19  1  0
 19 20  2  0
 20 21  1  0
 21 22  2  0
 22 23  1  0
 23 24  2  0
 24 25  1  0
 25 26  2  0
 14 27  1  0
 27 28  2  0
 27 29  1  0
  5 30  1  0
 30 31  2  0
 31  2  1  0
 10  6  1  0
 29 11  1  0
 20 15  1  0
 26 21  1  0
M  END
>  <Title>  (328) 
idAAMPgen7

$$$$

     RDKit          2D

 41 46  0  0  0  0  0  0  0  0999 V2000
    3.0000    0.0000    0.0000 C   0  0  0  0  0  0  0  0  0  0  0  0
    1.5000    0.0000    0.0000 C   0  0  0  0  0  0  0  0  0  0  0  0
    0.7500   -1.2990    0.0000 C   0  0  0  0  0  0  0  0  0  0  0  0
   -0.7500   -1.2990    0.0000 C   0  0  0  0  0  0  0  0  0  0  0  0
   -1.5000    0.0000    0.0000 C   0  0  0  0  0  0  0  0  0  0  0  0
   -3.0000    0.0000    0.0000 C   0  0  0  0  0  0  0  0  0  0  0  0
   -3.8817   -1.2135    0.0000 N   0  0  0  0  0  0  0  0  0  0  0  0
   -5.3083   -0.7500    0.0000 N   0  0  0  0  0  0  0  0  0  0  0  0
   -5.3083    0.7500    0.0000 N   0  0  0  0  0  0  0  0  0  0  0  0
   -3.8817    1.2135    0.0000 N   0  0  0  0  0  0  0  0  0  0  0  0
   -3.4182    2.6401    0.0000 C   0  0  0  0  0  0  0  0  0  0  0  0
   -1.9509    2.9520    0.0000 C   0  0  0  0  0  0  0  0  0  0  0  0
   -1.4874    4.3786    0.0000 C   0  0  0  0  0  0  0  0  0  0  0  0
   -2.4911    5.4933    0.0000 C   0  0  0  0  0  0  0  0  0  0  0  0
   -2.0276    6.9199    0.0000 C   0  0  0  0  0  0  0  0  0  0  0  0
   -0.5604    7.2317    0.0000 C   0  0  0  0  0  0  0  0  0  0  0  0
   -0.0968    8.6583    0.0000 C   0  0  0  0  0  0  0  0  0  0  0  0
   -1.1005    9.7730    0.0000 C   0  0  0  0  0  0  0  0  0  0  0  0
   -0.6370   11.1996    0.0000 C   0  0  0  0  0  0  0  0  0  0  0  0
   -1.6407   12.3143    0.0000 O   0  0  0  0  0  0  0  0  0  0  0  0
    0.8302   11.5115    0.0000 N   0  0  0  0  0  0  0  0  0  0  0  0
    1.2937   12.9381    0.0000 C   0  0  0  0  0  0  0  0  0  0  0  0
    2.7610   13.2499    0.0000 C   0  0  0  0  0  0  0  0  0  0  0  0
    3.2245   14.6765    0.0000 C   0  0  0  0  0  0  0  0  0  0  0  0
    2.2208   15.7912    0.0000 C   0  0  0  0  0  0  0  0  0  0  0  0
    0.7536   15.4794    0.0000 C   0  0  0  0  0  0  0  0  0  0  0  0
    0.2901   14.0528    0.0000 C   0  0  0  0  0  0  0  0  0  0  0  0
   -2.5677    9.4612    0.0000 C   0  0  0  0  0  0  0  0  0  0  0  0
   -3.0313    8.0346    0.0000 C   0  0  0  0  0  0  0  0  0  0  0  0
   -3.9583    5.1814    0.0000 C   0  0  0  0  0  0  0  0  0  0  0  0
   -4.4218    3.7548    0.0000 C   0  0  0  0  0  0  0  0  0  0  0  0
   -5.8891    3.4430    0.0000 C   0  0  0  0  0  0  0  0  0  0  0  0
   -6.8928    4.5577    0.0000 C   0  0  0  0  0  0  0  0  0  0  0  0
   -8.3600    4.2458    0.0000 C   0  0  0  0  0  0  0  0  0  0  0  0
   -8.8235    2.8192    0.0000 C   0  0  0  0  0  0  0  0  0  0  0  0
  -10.2907    2.5074    0.0000 C   0  0  0  0  0  0  0  0  0  0  0  0
   -7.8198    1.7045    0.0000 C   0  0  0  0  0  0  0  0  0  0  0  0
   -8.2833    0.2779    0.0000 O   0  0  0  0  0  0  0  0  0  0  0  0
   -6.3526    2.0164    0.0000 N   0  0  0  0  0  0  0  0  0  0  0  0
   -0.7500    1.2990    0.0000 N   0  0  0  0  0  0  0  0  0  0  0  0
    0.7500    1.2990    0.0000 C   0  0  0  0  0  0  0  0  0  0  0  0
  1  2  1  0
  2  3  2  0
  3  4  1  0
  4  5  2  0
  5  6  1  0
  6  7  2  0
  7  8  1  0
  8  9  2  0
  9 10  1  0
 10 11  1  0
 11 12  2  0
 12 13  1  0
 13 14  2  0
 14 15  1  0
 15 16  2  0
 16 17  1  0
 17 18  2  0
 18 19  1  0
 19 20  2  0
 19 21  1  0
 21 22  1  0
 22 23  2  0
 23 24  1  0
 24 25  2  0
 25 26  1  0
 26 27  2  0
 18 28  1  0
 28 29  2  0
 14 30  1  0
 30 31  2  0
 31 32  1  0
 32 33  2  0
 33 34  1  0
 34 35  2  0
 35 36  1  0
 35 37  1  0
 37 38  2  0
 37 39  1  0
  5 40  1  0
 40 41  1  0
 41  2  1  0
 10  6  1  0
 31 11  1  0
 39 32  1  0
 29 15  1  0
 27 22  1  0
M  END
>  <Title>  (329) 
idAAMQgen7

$$$$

     RDKit          2D

 35 39  0  0  0  0  0  0  0  0999 V2000
    9.4775    2.5068    0.0000 C   0  0  0  0  0  0  0  0  0  0  0  0
    8.4738    1.3921    0.0000 C   0  0  0  0  0  0  0  0  0  0  0  0
    8.9373   -0.0345    0.0000 C   0  0  0  0  0  0  0  0  0  0  0  0
    7.9336   -1.1492    0.0000 C   0  0  0  0  0  0  0  0  0  0  0  0
    6.4664   -0.8373    0.0000 C   0  0  0  0  0  0  0  0  0  0  0  0
    5.4627   -1.9520    0.0000 C   0  0  0  0  0  0  0  0  0  0  0  0
    5.9262   -3.3786    0.0000 O   0  0  0  0  0  0  0  0  0  0  0  0
    3.9955   -1.6402    0.0000 N   0  0  0  0  0  0  0  0  0  0  0  0
    2.9918   -2.7549    0.0000 C   0  0  0  0  0  0  0  0  0  0  0  0
    3.3037   -4.2221    0.0000 N   0  0  0  0  0  0  0  0  0  0  0  0
    2.0046   -4.9721    0.0000 N   0  0  0  0  0  0  0  0  0  0  0  0
    0.8899   -3.9684    0.0000 N   0  0  0  0  0  0  0  0  0  0  0  0
    1.5000   -2.5981    0.0000 N   0  0  0  0  0  0  0  0  0  0  0  0
    0.7500   -1.2990    0.0000 C   0  0  0  0  0  0  0  0  0  0  0  0
    1.5000    0.0000    0.0000 C   0  0  0  0  0  0  0  0  0  0  0  0
    0.7500    1.2990    0.0000 C   0  0  0  0  0  0  0  0  0  0  0  0
   -0.7500    1.2990    0.0000 C   0  0  0  0  0  0  0  0  0  0  0  0
   -1.5000    0.0000    0.0000 C   0  0  0  0  0  0  0  0  0  0  0  0
   -0.7500   -1.2990    0.0000 C   0  0  0  0  0  0  0  0  0  0  0  0
   -2.2124   -1.6328    0.0000 C   0  0  0  0  0  0  0  0  0  0  0  0
   -2.5462   -3.0952    0.0000 O   0  0  0  0  0  0  0  0  0  0  0  0
   -3.3851   -0.6976    0.0000 C   0  0  0  0  0  0  0  0  0  0  0  0
   -4.7366   -1.3484    0.0000 C   0  0  0  0  0  0  0  0  0  0  0  0
   -5.9760   -0.5034    0.0000 C   0  0  0  0  0  0  0  0  0  0  0  0
   -7.3274   -1.1543    0.0000 C   0  0  0  0  0  0  0  0  0  0  0  0
   -7.5952   -2.6302    0.0000 C   0  0  0  0  0  0  0  0  0  0  0  0
   -9.0817   -2.8315    0.0000 C   0  0  0  0  0  0  0  0  0  0  0  0
   -9.7325   -1.4800    0.0000 C   0  0  0  0  0  0  0  0  0  0  0  0
   -8.6483   -0.4435    0.0000 C   0  0  0  0  0  0  0  0  0  0  0  0
   -3.3851    0.8024    0.0000 N   0  0  0  0  0  0  0  0  0  0  0  0
   -2.2124    1.7376    0.0000 C   0  0  0  0  0  0  0  0  0  0  0  0
   -2.5462    3.2000    0.0000 O   0  0  0  0  0  0  0  0  0  0  0  0
    6.0029    0.5893    0.0000 N   0  0  0  0  0  0  0  0  0  0  0  0
    7.0066    1.7040    0.0000 C   0  0  0  0  0  0  0  0  0  0  0  0
    6.5430    3.1306    0.0000 O   0  0  0  0  0  0  0  0  0  0  0  0
  1  2  1  0
  2  3  2  0
  3  4  1  0
  4  5  2  0
  5  6  1  0
  6  7  2  0
  6  8  1  0
  8  9  1  0
  9 10  2  0
 10 11  1  0
 11 12  2  0
 12 13  1  0
 13 14  1  0
 14 15  2  0
 15 16  1  0
 16 17  2  0
 17 18  1  0
 18 19  2  0
 19 20  1  0
 20 21  2  0
 20 22  1  0
 22 23  2  3
 23 24  1  0
 24 25  2  3
 25 26  1  0
 26 27  2  0
 27 28  1  0
 28 29  2  0
 22 30  1  0
 30 31  1  0
 31 32  2  0
  5 33  1  0
 33 34  1  0
 34 35  2  0
 34  2  1  0
 13  9  1  0
 19 14  1  0
 29 25  1  0
 31 17  1  0
M  END
>  <Title>  (330) 
idAAMRgen7

$$$$

     RDKit          2D

 42 48  0  0  0  0  0  0  0  0999 V2000
   -2.1129  -11.1403    0.0000 C   0  0  0  0  0  0  0  0  0  0  0  0
   -3.5684  -10.7774    0.0000 C   0  0  0  0  0  0  0  0  0  0  0  0
   -3.9818   -9.3355    0.0000 C   0  0  0  0  0  0  0  0  0  0  0  0
   -5.4373   -8.9726    0.0000 C   0  0  0  0  0  0  0  0  0  0  0  0
   -6.4792  -10.0516    0.0000 C   0  0  0  0  0  0  0  0  0  0  0  0
   -7.9347   -9.6888    0.0000 C   0  0  0  0  0  0  0  0  0  0  0  0
   -9.0838  -10.6529    0.0000 N   0  0  0  0  0  0  0  0  0  0  0  0
  -10.3558   -9.8581    0.0000 N   0  0  0  0  0  0  0  0  0  0  0  0
   -9.9929   -8.4026    0.0000 N   0  0  0  0  0  0  0  0  0  0  0  0
   -8.4966   -8.2980    0.0000 N   0  0  0  0  0  0  0  0  0  0  0  0
   -7.7017   -7.0259    0.0000 C   0  0  0  0  0  0  0  0  0  0  0  0
   -6.2026   -7.0783    0.0000 C   0  0  0  0  0  0  0  0  0  0  0  0
   -5.4077   -5.8062    0.0000 C   0  0  0  0  0  0  0  0  0  0  0  0
   -6.1120   -4.4818    0.0000 C   0  0  0  0  0  0  0  0  0  0  0  0
   -5.3171   -3.2097    0.0000 C   0  0  0  0  0  0  0  0  0  0  0  0
   -3.8499   -3.5216    0.0000 C   0  0  0  0  0  0  0  0  0  0  0  0
   -2.5254   -2.8174    0.0000 C   0  0  0  0  0  0  0  0  0  0  0  0
   -1.9635   -1.4266    0.0000 C   0  0  0  0  0  0  0  0  0  0  0  0
   -0.7500   -2.3083    0.0000 C   0  0  0  0  0  0  0  0  0  0  0  0
    0.7500   -2.3083    0.0000 C   0  0  0  0  0  0  0  0  0  0  0  0
    1.2135   -3.7348    0.0000 C   0  0  0  0  0  0  0  0  0  0  0  0
    0.2098   -4.8496    0.0000 C   0  0  0  0  0  0  0  0  0  0  0  0
    0.6734   -6.2761    0.0000 C   0  0  0  0  0  0  0  0  0  0  0  0
    2.1406   -6.5880    0.0000 C   0  0  0  0  0  0  0  0  0  0  0  0
    3.1443   -5.4733    0.0000 C   0  0  0  0  0  0  0  0  0  0  0  0
    2.6807   -4.0467    0.0000 C   0  0  0  0  0  0  0  0  0  0  0  0
    1.9635   -1.4266    0.0000 C   0  0  0  0  0  0  0  0  0  0  0  0
    2.4271    0.0000    0.0000 N   0  0  0  0  0  0  0  0  0  0  0  0
    1.9635    1.4266    0.0000 N   0  0  0  0  0  0  0  0  0  0  0  0
    0.7500    2.3083    0.0000 N   0  0  0  0  0  0  0  0  0  0  0  0
   -0.7500    2.3083    0.0000 N   0  0  0  0  0  0  0  0  0  0  0  0
   -1.9635    1.4266    0.0000 C   0  0  0  0  0  0  0  0  0  0  0  0
   -2.4271    0.0000    0.0000 C   0  0  0  0  0  0  0  0  0  0  0  0
   -3.6991    0.7949    0.0000 N   0  0  0  0  0  0  0  0  0  0  0  0
   -5.1845    0.5861    0.0000 N   0  0  0  0  0  0  0  0  0  0  0  0
   -6.1882   -0.5286    0.0000 N   0  0  0  0  0  0  0  0  0  0  0  0
   -6.2406   -2.0277    0.0000 N   0  0  0  0  0  0  0  0  0  0  0  0
   -7.6110   -4.4294    0.0000 C   0  0  0  0  0  0  0  0  0  0  0  0
   -8.4059   -5.7015    0.0000 C   0  0  0  0  0  0  0  0  0  0  0  0
   -6.0658  -11.4935    0.0000 C   0  0  0  0  0  0  0  0  0  0  0  0
   -7.1078  -12.5725    0.0000 O   0  0  0  0  0  0  0  0  0  0  0  0
   -4.6103  -11.8564    0.0000 O   0  0  0  0  0  0  0  0  0  0  0  0
  1  2  1  0
  2  3  2  0
  3  4  1  0
  4  5  2  0
  5  6  1  0
  6  7  2  0
  7  8  1  0
  8  9  2  0
  9 10  1  0
 10 11  1  0
 11 12  2  0
 12 13  1  0
 13 14  2  0
 14 15  1  0
 15 16  2  0
 16 17  1  0
 17 18  2  0
 18 19  1  0
 19 20  2  0
 20 21  1  0
 21 22  2  0
 22 23  1  0
 23 24  2  0
 24 25  1  0
 25 26  2  0
 20 27  1  0
 27 28  2  0
 28 29  1  0
 29 30  2  0
 30 31  1  0
 31 32  2  0
 32 33  1  0
 33 34  2  0
 34 35  1  0
 35 36  2  0
 36 37  1  0
 14 38  1  0
 38 39  2  0
  5 40  1  0
 40 41  2  0
 40 42  1  0
 42  2  1  0
 10  6  1  0
 39 11  1  0
 37 15  1  0
 33 18  1  0
 26 21  1  0
 37 27  1  0
M  END
>  <Title>  (331) 
idAAMSgen7

$$$$

     RDKit          2D

 12 12  0  0  0  0  0  0  0  0999 V2000
    4.2098   -1.2990    0.0000 C   0  0  0  0  0  0  0  0  0  0  0  0
    3.4598   -0.0000    0.0000 O   0  0  0  0  0  0  0  0  0  0  0  0
    1.9598    0.0000    0.0000 C   0  0  0  0  0  0  0  0  0  0  0  0
    1.3858   -1.3858    0.0000 C   0  0  0  0  0  0  0  0  0  0  0  0
   -0.0000   -1.9598    0.0000 C   0  0  0  0  0  0  0  0  0  0  0  0
   -1.3858   -1.3858    0.0000 C   0  0  0  0  0  0  0  0  0  0  0  0
   -1.9598    0.0000    0.0000 C   0  0  0  0  0  0  0  0  0  0  0  0
   -1.3858    1.3858    0.0000 C   0  0  0  0  0  0  0  0  0  0  0  0
   -2.4465    2.4465    0.0000 N   0  0  0  0  0  0  0  0  0  0  0  0
    0.0000    1.9598    0.0000 C   0  0  0  0  0  0  0  0  0  0  0  0
    0.0000    3.4598    0.0000 O   0  0  0  0  0  0  0  0  0  0  0  0
    1.3858    1.3858    0.0000 N   0  0  0  0  0  0  0  0  0  0  0  0
  1  2  1  0
  2  3  1  0
  3  4  2  0
  4  5  1  0
  5  6  2  0
  6  7  1  0
  7  8  2  0
  8  9  1  0
  8 10  1  0
 10 11  2  0
 10 12  1  0
 12  3  1  0
M  END
>  <Title>  (332) 
idAAMTgen7

$$$$

     RDKit          2D

 50 58  0  0  0  0  0  0  0  0999 V2000
   -7.0573    4.8594    0.0000 C   0  0  0  0  0  0  0  0  0  0  0  0
   -7.8521    3.5873    0.0000 C   0  0  0  0  0  0  0  0  0  0  0  0
   -7.2902    2.1965    0.0000 C   0  0  0  0  0  0  0  0  0  0  0  0
   -8.4393    1.2323    0.0000 C   0  0  0  0  0  0  0  0  0  0  0  0
   -9.7114    2.0272    0.0000 C   0  0  0  0  0  0  0  0  0  0  0  0
  -11.1021    1.4653    0.0000 C   0  0  0  0  0  0  0  0  0  0  0  0
  -12.3742    2.2602    0.0000 N   0  0  0  0  0  0  0  0  0  0  0  0
  -13.5233    1.2960    0.0000 N   0  0  0  0  0  0  0  0  0  0  0  0
  -12.9614   -0.0948    0.0000 N   0  0  0  0  0  0  0  0  0  0  0  0
  -11.4650    0.0099    0.0000 N   0  0  0  0  0  0  0  0  0  0  0  0
  -10.5008   -1.1392    0.0000 C   0  0  0  0  0  0  0  0  0  0  0  0
   -9.0236   -0.8787    0.0000 C   0  0  0  0  0  0  0  0  0  0  0  0
   -8.0595   -2.0278    0.0000 C   0  0  0  0  0  0  0  0  0  0  0  0
   -8.5725   -3.4373    0.0000 C   0  0  0  0  0  0  0  0  0  0  0  0
   -7.6083   -4.5864    0.0000 C   0  0  0  0  0  0  0  0  0  0  0  0
   -7.9712   -6.0419    0.0000 N   0  0  0  0  0  0  0  0  0  0  0  0
   -6.6991   -6.8367    0.0000 N   0  0  0  0  0  0  0  0  0  0  0  0
   -5.5500   -5.8725    0.0000 N   0  0  0  0  0  0  0  0  0  0  0  0
   -6.1120   -4.4818    0.0000 N   0  0  0  0  0  0  0  0  0  0  0  0
   -5.3171   -3.2097    0.0000 C   0  0  0  0  0  0  0  0  0  0  0  0
   -3.8499   -3.5216    0.0000 C   0  0  0  0  0  0  0  0  0  0  0  0
   -2.5254   -2.8174    0.0000 C   0  0  0  0  0  0  0  0  0  0  0  0
   -1.9635   -1.4266    0.0000 C   0  0  0  0  0  0  0  0  0  0  0  0
   -0.7500   -2.3083    0.0000 C   0  0  0  0  0  0  0  0  0  0  0  0
    0.7500   -2.3083    0.0000 C   0  0  0  0  0  0  0  0  0  0  0  0
    1.2135   -3.7348    0.0000 C   0  0  0  0  0  0  0  0  0  0  0  0
    0.3318   -4.9484    0.0000 N   0  0  0  0  0  0  0  0  0  0  0  0
    1.2135   -6.1619    0.0000 N   0  0  0  0  0  0  0  0  0  0  0  0
    2.6401   -5.6984    0.0000 N   0  0  0  0  0  0  0  0  0  0  0  0
    2.6401   -4.1984    0.0000 N   0  0  0  0  0  0  0  0  0  0  0  0
    3.8536   -3.3167    0.0000 C   0  0  0  0  0  0  0  0  0  0  0  0
    5.2240   -3.9268    0.0000 C   0  0  0  0  0  0  0  0  0  0  0  0
    6.4375   -3.0451    0.0000 C   0  0  0  0  0  0  0  0  0  0  0  0
    6.2807   -1.5533    0.0000 C   0  0  0  0  0  0  0  0  0  0  0  0
    4.9104   -0.9432    0.0000 C   0  0  0  0  0  0  0  0  0  0  0  0
    3.6968   -1.8249    0.0000 C   0  0  0  0  0  0  0  0  0  0  0  0
    1.9635   -1.4266    0.0000 C   0  0  0  0  0  0  0  0  0  0  0  0
    2.4271    0.0000    0.0000 C   0  0  0  0  0  0  0  0  0  0  0  0
    1.9635    1.4266    0.0000 C   0  0  0  0  0  0  0  0  0  0  0  0
    0.7500    2.3083    0.0000 C   0  0  0  0  0  0  0  0  0  0  0  0
   -0.7500    2.3083    0.0000 C   0  0  0  0  0  0  0  0  0  0  0  0
   -1.9635    1.4266    0.0000 C   0  0  0  0  0  0  0  0  0  0  0  0
   -2.4271    0.0000    0.0000 C   0  0  0  0  0  0  0  0  0  0  0  0
   -3.6991    0.7949    0.0000 N   0  0  0  0  0  0  0  0  0  0  0  0
   -5.1845    0.5861    0.0000 N   0  0  0  0  0  0  0  0  0  0  0  0
   -6.1882   -0.5286    0.0000 N   0  0  0  0  0  0  0  0  0  0  0  0
   -6.2406   -2.0277    0.0000 N   0  0  0  0  0  0  0  0  0  0  0  0
  -10.0497   -3.6978    0.0000 N   0  0  0  0  0  0  0  0  0  0  0  0
  -11.0139   -2.5487    0.0000 N   0  0  0  0  0  0  0  0  0  0  0  0
   -9.3485    3.4827    0.0000 N   0  0  0  0  0  0  0  0  0  0  0  0
  1  2  1  0
  2  3  2  0
  3  4  1  0
  4  5  2  0
  5  6  1  0
  6  7  2  0
  7  8  1  0
  8  9  2  0
  9 10  1  0
 10 11  1  0
 11 12  2  0
 12 13  1  0
 13 14  2  0
 14 15  1  0
 15 16  2  0
 16 17  1  0
 17 18  2  0
 18 19  1  0
 19 20  1  0
 20 21  2  0
 21 22  1  0
 22 23  2  0
 23 24  1  0
 24 25  2  0
 25 26  1  0
 26 27  2  0
 27 28  1  0
 28 29  2  0
 29 30  1  0
 30 31  1  0
 31 32  2  0
 32 33  1  0
 33 34  2  0
 34 35  1  0
 35 36  2  0
 25 37  1  0
 37 38  2  0
 38 39  1  0
 39 40  2  0
 40 41  1  0
 41 42  2  0
 42 43  1  0
 43 44  2  0
 44 45  1  0
 45 46  2  0
 46 47  1  0
 14 48  1  0
 48 49  2  0
  5 50  1  0
 50  2  1  0
 10  6  1  0
 49 11  1  0
 19 15  1  0
 47 20  1  0
 43 23  1  0
 30 26  1  0
 36 31  1  0
 47 37  1  0
M  END
>  <Title>  (333) 
idAAMUgen7

$$$$

     RDKit          2D

 25 27  0  0  0  0  0  0  0  0999 V2000
    7.6617    1.5219    0.0000 C   0  0  0  0  0  0  0  0  0  0  0  0
    6.3252    0.8409    0.0000 C   0  0  0  0  0  0  0  0  0  0  0  0
    4.9887    1.5219    0.0000 C   0  0  0  0  0  0  0  0  0  0  0  0
    3.9280    0.4612    0.0000 C   0  0  0  0  0  0  0  0  0  0  0  0
    4.6090   -0.8753    0.0000 C   0  0  0  0  0  0  0  0  0  0  0  0
    3.9280   -2.2118    0.0000 C   0  0  0  0  0  0  0  0  0  0  0  0
    4.6090   -3.5483    0.0000 N   0  0  0  0  0  0  0  0  0  0  0  0
    3.5483   -4.6090    0.0000 N   0  0  0  0  0  0  0  0  0  0  0  0
    2.2118   -3.9280    0.0000 N   0  0  0  0  0  0  0  0  0  0  0  0
    2.4465   -2.4465    0.0000 N   0  0  0  0  0  0  0  0  0  0  0  0
    1.3858   -1.3858    0.0000 C   0  0  0  0  0  0  0  0  0  0  0  0
    1.9598    0.0000    0.0000 C   0  0  0  0  0  0  0  0  0  0  0  0
    1.3858    1.3858    0.0000 C   0  0  0  0  0  0  0  0  0  0  0  0
    0.0000    1.9598    0.0000 C   0  0  0  0  0  0  0  0  0  0  0  0
    0.0000    3.4598    0.0000 C   0  0  0  0  0  0  0  0  0  0  0  0
   -1.2990    4.2098    0.0000 O   0  0  0  0  0  0  0  0  0  0  0  0
    1.2990    4.2098    0.0000 N   0  0  0  0  0  0  0  0  0  0  0  0
    1.2990    5.7098    0.0000 O   0  0  0  0  0  0  0  0  0  0  0  0
   -1.3858    1.3858    0.0000 C   0  0  0  0  0  0  0  0  0  0  0  0
   -2.4465    2.4465    0.0000 C   0  0  0  0  0  0  0  0  0  0  0  0
   -1.9598    0.0000    0.0000 C   0  0  0  0  0  0  0  0  0  0  0  0
   -1.3858   -1.3858    0.0000 C   0  0  0  0  0  0  0  0  0  0  0  0
   -0.0000   -1.9598    0.0000 C   0  0  0  0  0  0  0  0  0  0  0  0
    6.0905   -0.6407    0.0000 C   0  0  0  0  0  0  0  0  0  0  0  0
    7.1512   -1.7013    0.0000 O   0  0  0  0  0  0  0  0  0  0  0  0
  1  2  1  0
  2  3  2  0
  3  4  1  0
  4  5  2  0
  5  6  1  0
  6  7  2  0
  7  8  1  0
  8  9  2  0
  9 10  1  0
 10 11  1  0
 11 12  2  0
 12 13  1  0
 13 14  2  0
 14 15  1  0
 15 16  2  0
 15 17  1  0
 17 18  1  0
 14 19  1  0
 19 20  1  0
 19 21  2  0
 21 22  1  0
 22 23  2  0
  5 24  1  0
 24 25  2  0
 24  2  1  0
 10  6  1  0
 23 11  1  0
M  END
>  <Title>  (334) 
idAAMVgen7

$$$$

     RDKit          2D

 39 44  0  0  0  0  0  0  0  0999 V2000
  -14.9962    5.8473    0.0000 C   0  0  0  0  0  0  0  0  0  0  0  0
  -13.7827    4.9656    0.0000 C   0  0  0  0  0  0  0  0  0  0  0  0
  -13.9395    3.4739    0.0000 C   0  0  0  0  0  0  0  0  0  0  0  0
  -12.7260    2.5922    0.0000 C   0  0  0  0  0  0  0  0  0  0  0  0
  -11.3556    3.2023    0.0000 C   0  0  0  0  0  0  0  0  0  0  0  0
  -10.1421    2.3206    0.0000 C   0  0  0  0  0  0  0  0  0  0  0  0
  -10.2989    0.8288    0.0000 O   0  0  0  0  0  0  0  0  0  0  0  0
   -8.7718    2.9307    0.0000 N   0  0  0  0  0  0  0  0  0  0  0  0
   -7.5583    2.0490    0.0000 C   0  0  0  0  0  0  0  0  0  0  0  0
   -7.5583    0.5490    0.0000 N   0  0  0  0  0  0  0  0  0  0  0  0
   -6.1317    0.0855    0.0000 N   0  0  0  0  0  0  0  0  0  0  0  0
   -5.2500    1.2990    0.0000 N   0  0  0  0  0  0  0  0  0  0  0  0
   -6.1317    2.5126    0.0000 N   0  0  0  0  0  0  0  0  0  0  0  0
   -5.6682    3.9391    0.0000 C   0  0  0  0  0  0  0  0  0  0  0  0
   -6.5498    5.1527    0.0000 N   0  0  0  0  0  0  0  0  0  0  0  0
   -5.6682    6.3662    0.0000 N   0  0  0  0  0  0  0  0  0  0  0  0
   -4.2416    5.9027    0.0000 N   0  0  0  0  0  0  0  0  0  0  0  0
   -4.2416    4.4027    0.0000 N   0  0  0  0  0  0  0  0  0  0  0  0
   -3.0280    3.5210    0.0000 C   0  0  0  0  0  0  0  0  0  0  0  0
   -3.0280    2.0210    0.0000 C   0  0  0  0  0  0  0  0  0  0  0  0
   -1.6015    1.5575    0.0000 C   0  0  0  0  0  0  0  0  0  0  0  0
   -0.7198    2.7710    0.0000 C   0  0  0  0  0  0  0  0  0  0  0  0
    0.7802    2.7710    0.0000 C   0  0  0  0  0  0  0  0  0  0  0  0
    1.5302    4.0700    0.0000 C   0  0  0  0  0  0  0  0  0  0  0  0
    3.0302    4.0700    0.0000 C   0  0  0  0  0  0  0  0  0  0  0  0
    3.7802    2.7710    0.0000 C   0  0  0  0  0  0  0  0  0  0  0  0
    5.2802    2.7710    0.0000 C   0  0  0  0  0  0  0  0  0  0  0  0
    6.0302    4.0700    0.0000 C   0  0  0  0  0  0  0  0  0  0  0  0
    7.5302    4.0700    0.0000 C   0  0  0  0  0  0  0  0  0  0  0  0
    8.2802    2.7710    0.0000 N   0  0  0  0  0  0  0  0  0  0  0  0
    7.5302    1.4720    0.0000 N   0  0  0  0  0  0  0  0  0  0  0  0
    6.0302    1.4720    0.0000 C   0  0  0  0  0  0  0  0  0  0  0  0
    3.0302    1.4720    0.0000 C   0  0  0  0  0  0  0  0  0  0  0  0
    1.5302    1.4720    0.0000 C   0  0  0  0  0  0  0  0  0  0  0  0
   -1.6015    3.9845    0.0000 C   0  0  0  0  0  0  0  0  0  0  0  0
   -1.1379    5.4111    0.0000 O   0  0  0  0  0  0  0  0  0  0  0  0
  -11.1988    4.6941    0.0000 C   0  0  0  0  0  0  0  0  0  0  0  0
   -9.8285    5.3042    0.0000 O   0  0  0  0  0  0  0  0  0  0  0  0
  -12.4124    5.5757    0.0000 N   0  0  0  0  0  0  0  0  0  0  0  0
  1  2  1  0
  2  3  2  0
  3  4  1  0
  4  5  2  0
  5  6  1  0
  6  7  2  0
  6  8  1  0
  8  9  1  0
  9 10  2  0
 10 11  1  0
 11 12  2  0
 12 13  1  0
 13 14  1  0
 14 15  2  0
 15 16  1  0
 16 17  2  0
 17 18  1  0
 18 19  1  0
 19 20  2  0
 20 21  1  0
 21 22  2  0
 22 23  1  0
 23 24  2  0
 24 25  1  0
 25 26  2  0
 26 27  1  0
 27 28  2  0
 28 29  1  0
 29 30  2  0
 30 31  1  0
 31 32  2  0
 26 33  1  0
 33 34  2  0
 22 35  1  0
 35 36  2  0
  5 37  1  0
 37 38  2  0
 37 39  1  0
 39  2  1  0
 13  9  1  0
 18 14  1  0
 35 19  1  0
 34 23  1  0
 32 27  1  0
M  END
>  <Title>  (335) 
idAAMWgen7

$$$$

     RDKit          2D

 13 14  0  0  0  0  0  0  0  0999 V2000
   -4.0997    6.4753    0.0000 N   0  0  0  0  0  0  0  0  0  0  0  0
   -3.1255    5.3347    0.0000 C   0  0  0  0  0  0  0  0  0  0  0  0
   -2.1513    4.1941    0.0000 C   0  0  0  0  0  0  0  0  0  0  0  0
   -0.7248    4.6576    0.0000 C   0  0  0  0  0  0  0  0  0  0  0  0
    0.6118    3.9766    0.0000 C   0  0  0  0  0  0  0  0  0  0  0  0
    1.0753    2.5500    0.0000 C   0  0  0  0  0  0  0  0  0  0  0  0
    0.3943    1.2135    0.0000 C   0  0  0  0  0  0  0  0  0  0  0  0
    1.2760    0.0000    0.0000 C   0  0  0  0  0  0  0  0  0  0  0  0
    0.3943   -1.2135    0.0000 C   0  0  0  0  0  0  0  0  0  0  0  0
   -1.0323   -0.7500    0.0000 C   0  0  0  0  0  0  0  0  0  0  0  0
   -1.0323    0.7500    0.0000 C   0  0  0  0  0  0  0  0  0  0  0  0
   -2.3688    1.4310    0.0000 C   0  0  0  0  0  0  0  0  0  0  0  0
   -2.8323    2.8576    0.0000 C   0  0  0  0  0  0  0  0  0  0  0  0
  1  2  3  0
  2  3  1  0
  3  4  1  0
  4  5  2  0
  5  6  1  0
  6  7  2  0
  7  8  1  0
  8  9  2  0
  9 10  1  0
 10 11  2  0
 11 12  1  0
 12 13  2  0
 13  3  1  0
 11  7  1  0
M  END
>  <Title>  (336) 
idAAMXgen7

$$$$

     RDKit          2D

 34 37  0  0  0  0  0  0  0  0999 V2000
    3.6929    0.0000    0.0000 C   0  0  0  0  0  0  0  0  0  0  0  0
    2.1929    0.0000    0.0000 C   0  0  0  0  0  0  0  0  0  0  0  0
    1.6798    1.4095    0.0000 C   0  0  0  0  0  0  0  0  0  0  0  0
    0.3808    2.1595    0.0000 C   0  0  0  0  0  0  0  0  0  0  0  0
   -1.0964    1.8991    0.0000 C   0  0  0  0  0  0  0  0  0  0  0  0
   -1.8464    3.1981    0.0000 C   0  0  0  0  0  0  0  0  0  0  0  0
   -2.0606    0.7500    0.0000 C   0  0  0  0  0  0  0  0  0  0  0  0
   -3.4701    1.2630    0.0000 O   0  0  0  0  0  0  0  0  0  0  0  0
   -2.0606   -0.7500    0.0000 N   0  0  0  0  0  0  0  0  0  0  0  0
   -1.0964   -1.8991    0.0000 C   0  0  0  0  0  0  0  0  0  0  0  0
   -1.8464   -3.1981    0.0000 N   0  0  0  0  0  0  0  0  0  0  0  0
   -1.2363   -4.5684    0.0000 N   0  0  0  0  0  0  0  0  0  0  0  0
   -2.3510   -5.5721    0.0000 N   0  0  0  0  0  0  0  0  0  0  0  0
   -3.6501   -4.8221    0.0000 N   0  0  0  0  0  0  0  0  0  0  0  0
   -3.3382   -3.3549    0.0000 C   0  0  0  0  0  0  0  0  0  0  0  0
   -4.3419   -2.2402    0.0000 N   0  0  0  0  0  0  0  0  0  0  0  0
   -5.8091   -2.5520    0.0000 C   0  0  0  0  0  0  0  0  0  0  0  0
   -6.2727   -3.9786    0.0000 O   0  0  0  0  0  0  0  0  0  0  0  0
   -6.8128   -1.4373    0.0000 C   0  0  0  0  0  0  0  0  0  0  0  0
   -6.3493   -0.0107    0.0000 C   0  0  0  0  0  0  0  0  0  0  0  0
   -7.3530    1.1040    0.0000 C   0  0  0  0  0  0  0  0  0  0  0  0
   -8.8202    0.7921    0.0000 C   0  0  0  0  0  0  0  0  0  0  0  0
   -9.8239    1.9068    0.0000 C   0  0  0  0  0  0  0  0  0  0  0  0
   -9.3604    3.3334    0.0000 C   0  0  0  0  0  0  0  0  0  0  0  0
  -10.3641    4.4481    0.0000 C   0  0  0  0  0  0  0  0  0  0  0  0
  -11.8313    4.1363    0.0000 C   0  0  0  0  0  0  0  0  0  0  0  0
  -12.2948    2.7097    0.0000 C   0  0  0  0  0  0  0  0  0  0  0  0
  -11.2911    1.5950    0.0000 C   0  0  0  0  0  0  0  0  0  0  0  0
   -9.2837   -0.6345    0.0000 C   0  0  0  0  0  0  0  0  0  0  0  0
  -10.7510   -0.9463    0.0000 O   0  0  0  0  0  0  0  0  0  0  0  0
   -8.2800   -1.7492    0.0000 N   0  0  0  0  0  0  0  0  0  0  0  0
    0.3808   -2.1595    0.0000 C   0  0  0  0  0  0  0  0  0  0  0  0
    0.6413   -3.6368    0.0000 O   0  0  0  0  0  0  0  0  0  0  0  0
    1.6798   -1.4095    0.0000 N   0  0  0  0  0  0  0  0  0  0  0  0
  1  2  1  0
  2  3  2  0
  3  4  1  0
  4  5  2  0
  5  6  1  0
  5  7  1  0
  7  8  2  0
  7  9  1  0
  9 10  2  0
 10 11  1  0
 11 12  1  0
 12 13  2  0
 13 14  1  0
 14 15  2  0
 15 16  1  0
 16 17  1  0
 17 18  2  0
 17 19  1  0
 19 20  2  0
 20 21  1  0
 21 22  2  0
 22 23  1  0
 23 24  2  0
 24 25  1  0
 25 26  2  0
 26 27  1  0
 27 28  2  0
 22 29  1  0
 29 30  2  0
 29 31  1  0
 10 32  1  0
 32 33  2  0
 32 34  1  0
 34  2  1  0
 15 11  1  0
 31 19  1  0
 28 23  1  0
M  END
>  <Title>  (337) 
idAAMYgen7

$$$$

     RDKit          2D

 36 41  0  0  0  0  0  0  0  0999 V2000
   -6.0571   -4.7042    0.0000 C   0  0  0  0  0  0  0  0  0  0  0  0
   -4.5899   -4.3923    0.0000 O   0  0  0  0  0  0  0  0  0  0  0  0
   -4.1264   -2.9657    0.0000 C   0  0  0  0  0  0  0  0  0  0  0  0
   -2.6998   -2.5022    0.0000 C   0  0  0  0  0  0  0  0  0  0  0  0
   -2.6998   -1.0022    0.0000 C   0  0  0  0  0  0  0  0  0  0  0  0
   -4.1264   -0.5387    0.0000 C   0  0  0  0  0  0  0  0  0  0  0  0
   -4.5899    0.8879    0.0000 C   0  0  0  0  0  0  0  0  0  0  0  0
   -6.0165    1.3515    0.0000 N   0  0  0  0  0  0  0  0  0  0  0  0
   -6.0165    2.8515    0.0000 N   0  0  0  0  0  0  0  0  0  0  0  0
   -4.5899    3.3150    0.0000 N   0  0  0  0  0  0  0  0  0  0  0  0
   -3.7082    2.1015    0.0000 N   0  0  0  0  0  0  0  0  0  0  0  0
   -2.2082    2.1015    0.0000 C   0  0  0  0  0  0  0  0  0  0  0  0
   -1.5574    3.4529    0.0000 C   0  0  0  0  0  0  0  0  0  0  0  0
   -0.0950    3.7867    0.0000 C   0  0  0  0  0  0  0  0  0  0  0  0
    1.0777    2.8515    0.0000 C   0  0  0  0  0  0  0  0  0  0  0  0
    2.4292    3.5023    0.0000 C   0  0  0  0  0  0  0  0  0  0  0  0
    3.6686    2.6573    0.0000 C   0  0  0  0  0  0  0  0  0  0  0  0
    5.0200    3.3081    0.0000 C   0  0  0  0  0  0  0  0  0  0  0  0
    5.1321    4.8039    0.0000 C   0  0  0  0  0  0  0  0  0  0  0  0
    3.8927    5.6489    0.0000 C   0  0  0  0  0  0  0  0  0  0  0  0
    2.5413    4.9981    0.0000 C   0  0  0  0  0  0  0  0  0  0  0  0
    1.0777    1.3515    0.0000 C   0  0  0  0  0  0  0  0  0  0  0  0
    1.7286    0.0000    0.0000 C   0  0  0  0  0  0  0  0  0  0  0  0
    1.0777   -1.3515    0.0000 C   0  0  0  0  0  0  0  0  0  0  0  0
   -0.3846   -1.6852    0.0000 C   0  0  0  0  0  0  0  0  0  0  0  0
   -0.7184   -3.1476    0.0000 C   0  0  0  0  0  0  0  0  0  0  0  0
   -2.1518   -3.5898    0.0000 C   0  0  0  0  0  0  0  0  0  0  0  0
   -2.4856   -5.0522    0.0000 C   0  0  0  0  0  0  0  0  0  0  0  0
   -1.3860   -6.0724    0.0000 C   0  0  0  0  0  0  0  0  0  0  0  0
    0.0474   -5.6303    0.0000 C   0  0  0  0  0  0  0  0  0  0  0  0
    0.3812   -4.1679    0.0000 C   0  0  0  0  0  0  0  0  0  0  0  0
   -1.5574   -0.7500    0.0000 C   0  0  0  0  0  0  0  0  0  0  0  0
   -1.5574    0.7500    0.0000 C   0  0  0  0  0  0  0  0  0  0  0  0
   -0.3846    1.6852    0.0000 C   0  0  0  0  0  0  0  0  0  0  0  0
   -0.7184    3.1476    0.0000 O   0  0  0  0  0  0  0  0  0  0  0  0
   -5.0080   -1.7522    0.0000 C   0  0  0  0  0  0  0  0  0  0  0  0
  1  2  1  0
  2  3  1  0
  3  4  2  0
  4  5  1  0
  5  6  2  0
  6  7  1  0
  7  8  2  0
  8  9  1  0
  9 10  2  0
 10 11  1  0
 11 12  1  0
 12 13  2  0
 13 14  1  0
 14 15  2  0
 15 16  1  0
 16 17  2  0
 17 18  1  0
 18 19  2  0
 19 20  1  0
 20 21  2  0
 15 22  1  0
 22 23  2  0
 23 24  1  0
 24 25  2  0
 25 26  1  0
 26 27  2  0
 27 28  1  0
 28 29  2  0
 29 30  1  0
 30 31  2  0
 25 32  1  0
 32 33  2  0
 33 34  1  0
 34 35  2  0
  6 36  1  0
 36  3  1  0
 11  7  1  0
 33 12  1  0
 21 16  1  0
 34 22  1  0
 31 26  1  0
M  END
>  <Title>  (338) 
idAAMZgen7

$$$$

     RDKit          2D

 46 53  0  0  0  0  0  0  0  0999 V2000
    7.5646   -0.1148    0.0000 C   0  0  0  0  0  0  0  0  0  0  0  0
    6.0974   -0.4266    0.0000 C   0  0  0  0  0  0  0  0  0  0  0  0
    4.9826    0.5771    0.0000 C   0  0  0  0  0  0  0  0  0  0  0  0
    3.6836   -0.1729    0.0000 C   0  0  0  0  0  0  0  0  0  0  0  0
    3.9955   -1.6402    0.0000 C   0  0  0  0  0  0  0  0  0  0  0  0
    2.9918   -2.7549    0.0000 C   0  0  0  0  0  0  0  0  0  0  0  0
    3.3037   -4.2221    0.0000 N   0  0  0  0  0  0  0  0  0  0  0  0
    2.0046   -4.9721    0.0000 N   0  0  0  0  0  0  0  0  0  0  0  0
    0.8899   -3.9684    0.0000 N   0  0  0  0  0  0  0  0  0  0  0  0
    1.5000   -2.5981    0.0000 N   0  0  0  0  0  0  0  0  0  0  0  0
    0.7500   -1.2990    0.0000 C   0  0  0  0  0  0  0  0  0  0  0  0
    1.5000    0.0000    0.0000 C   0  0  0  0  0  0  0  0  0  0  0  0
    0.7500    1.2990    0.0000 C   0  0  0  0  0  0  0  0  0  0  0  0
   -0.7500    1.2990    0.0000 C   0  0  0  0  0  0  0  0  0  0  0  0
   -1.5000    2.5981    0.0000 C   0  0  0  0  0  0  0  0  0  0  0  0
   -0.7500    3.8971    0.0000 C   0  0  0  0  0  0  0  0  0  0  0  0
   -1.5000    5.1962    0.0000 C   0  0  0  0  0  0  0  0  0  0  0  0
   -3.0000    5.1962    0.0000 C   0  0  0  0  0  0  0  0  0  0  0  0
   -3.7500    3.8971    0.0000 C   0  0  0  0  0  0  0  0  0  0  0  0
   -3.0000    2.5981    0.0000 C   0  0  0  0  0  0  0  0  0  0  0  0
   -1.5000    0.0000    0.0000 C   0  0  0  0  0  0  0  0  0  0  0  0
   -0.7500   -1.2990    0.0000 C   0  0  0  0  0  0  0  0  0  0  0  0
   -1.5000   -2.5981    0.0000 C   0  0  0  0  0  0  0  0  0  0  0  0
   -0.8899   -3.9684    0.0000 N   0  0  0  0  0  0  0  0  0  0  0  0
   -2.0046   -4.9721    0.0000 N   0  0  0  0  0  0  0  0  0  0  0  0
   -3.3037   -4.2221    0.0000 N   0  0  0  0  0  0  0  0  0  0  0  0
   -2.9918   -2.7549    0.0000 N   0  0  0  0  0  0  0  0  0  0  0  0
   -3.9955   -1.6402    0.0000 C   0  0  0  0  0  0  0  0  0  0  0  0
   -3.6836   -0.1729    0.0000 C   0  0  0  0  0  0  0  0  0  0  0  0
   -4.9826    0.5771    0.0000 C   0  0  0  0  0  0  0  0  0  0  0  0
   -6.0974   -0.4266    0.0000 C   0  0  0  0  0  0  0  0  0  0  0  0
   -7.5646   -0.1148    0.0000 C   0  0  0  0  0  0  0  0  0  0  0  0
   -8.5683   -1.2295    0.0000 C   0  0  0  0  0  0  0  0  0  0  0  0
  -10.0355   -0.9176    0.0000 C   0  0  0  0  0  0  0  0  0  0  0  0
  -10.4990    0.5090    0.0000 C   0  0  0  0  0  0  0  0  0  0  0  0
   -9.4953    1.6237    0.0000 C   0  0  0  0  0  0  0  0  0  0  0  0
   -8.0281    1.3118    0.0000 C   0  0  0  0  0  0  0  0  0  0  0  0
   -7.0244    2.4265    0.0000 C   0  0  0  0  0  0  0  0  0  0  0  0
   -7.4879    3.8531    0.0000 C   0  0  0  0  0  0  0  0  0  0  0  0
   -6.4842    4.9678    0.0000 C   0  0  0  0  0  0  0  0  0  0  0  0
   -5.0170    4.6560    0.0000 C   0  0  0  0  0  0  0  0  0  0  0  0
   -4.5535    3.2294    0.0000 C   0  0  0  0  0  0  0  0  0  0  0  0
   -5.5572    2.1147    0.0000 C   0  0  0  0  0  0  0  0  0  0  0  0
   -5.4873   -1.7969    0.0000 C   0  0  0  0  0  0  0  0  0  0  0  0
   -6.2373   -3.0960    0.0000 O   0  0  0  0  0  0  0  0  0  0  0  0
    5.4873   -1.7969    0.0000 C   0  0  0  0  0  0  0  0  0  0  0  0
  1  2  1  0
  2  3  2  0
  3  4  1  0
  4  5  2  0
  5  6  1  0
  6  7  2  0
  7  8  1  0
  8  9  2  0
  9 10  1  0
 10 11  1  0
 11 12  2  0
 12 13  1  0
 13 14  2  0
 14 15  1  0
 15 16  2  0
 16 17  1  0
 17 18  2  0
 18 19  1  0
 19 20  2  0
 14 21  1  0
 21 22  2  0
 22 23  1  0
 23 24  2  0
 24 25  1  0
 25 26  2  0
 26 27  1  0
 27 28  1  0
 28 29  2  0
 29 30  1  0
 30 31  2  0
 31 32  1  0
 32 33  2  0
 33 34  1  0
 34 35  2  0
 35 36  1  0
 36 37  2  0
 37 38  1  0
 38 39  2  0
 39 40  1  0
 40 41  2  0
 41 42  1  0
 42 43  2  0
 31 44  1  0
 44 45  2  0
  5 46  1  0
 46  2  1  0
 10  6  1  0
 22 11  1  0
 27 23  1  0
 44 28  1  0
 20 15  1  0
 37 32  1  0
 43 38  1  0
M  END
>  <Title>  (339) 
idAANAgen7

$$$$

     RDKit          2D

 62 71  0  0  0  0  0  0  0  0999 V2000
    3.0000   -0.0000    0.0000 C   0  0  0  0  0  0  0  0  0  0  0  0
    1.5000   -0.0000    0.0000 C   0  0  0  0  0  0  0  0  0  0  0  0
    0.7500   -1.2990    0.0000 C   0  0  0  0  0  0  0  0  0  0  0  0
   -0.7500   -1.2990    0.0000 C   0  0  0  0  0  0  0  0  0  0  0  0
   -1.5000   -0.0000    0.0000 C   0  0  0  0  0  0  0  0  0  0  0  0
   -3.0000   -0.0000    0.0000 C   0  0  0  0  0  0  0  0  0  0  0  0
   -3.8817   -1.2135    0.0000 N   0  0  0  0  0  0  0  0  0  0  0  0
   -5.3083   -0.7500    0.0000 N   0  0  0  0  0  0  0  0  0  0  0  0
   -5.3083    0.7500    0.0000 N   0  0  0  0  0  0  0  0  0  0  0  0
   -3.8817    1.2135    0.0000 N   0  0  0  0  0  0  0  0  0  0  0  0
   -3.4182    2.6401    0.0000 C   0  0  0  0  0  0  0  0  0  0  0  0
   -1.9509    2.9520    0.0000 C   0  0  0  0  0  0  0  0  0  0  0  0
   -1.4874    4.3786    0.0000 C   0  0  0  0  0  0  0  0  0  0  0  0
   -2.4911    5.4933    0.0000 C   0  0  0  0  0  0  0  0  0  0  0  0
   -2.0276    6.9199    0.0000 C   0  0  0  0  0  0  0  0  0  0  0  0
   -0.5604    7.2317    0.0000 C   0  0  0  0  0  0  0  0  0  0  0  0
   -0.0968    8.6583    0.0000 C   0  0  0  0  0  0  0  0  0  0  0  0
   -1.1005    9.7730    0.0000 C   0  0  0  0  0  0  0  0  0  0  0  0
   -0.6370   11.1996    0.0000 C   0  0  0  0  0  0  0  0  0  0  0  0
    0.8302   11.5115    0.0000 C   0  0  0  0  0  0  0  0  0  0  0  0
    1.2937   12.9381    0.0000 C   0  0  0  0  0  0  0  0  0  0  0  0
    0.2901   14.0528    0.0000 C   0  0  0  0  0  0  0  0  0  0  0  0
   -1.1772   13.7409    0.0000 C   0  0  0  0  0  0  0  0  0  0  0  0
   -1.6407   12.3143    0.0000 C   0  0  0  0  0  0  0  0  0  0  0  0
   -2.5677    9.4612    0.0000 C   0  0  0  0  0  0  0  0  0  0  0  0
   -3.0313    8.0346    0.0000 C   0  0  0  0  0  0  0  0  0  0  0  0
   -4.4985    7.7227    0.0000 C   0  0  0  0  0  0  0  0  0  0  0  0
   -5.1086    6.3524    0.0000 N   0  0  0  0  0  0  0  0  0  0  0  0
   -6.6004    6.5092    0.0000 N   0  0  0  0  0  0  0  0  0  0  0  0
   -6.9122    7.9764    0.0000 N   0  0  0  0  0  0  0  0  0  0  0  0
   -5.6132    8.7264    0.0000 N   0  0  0  0  0  0  0  0  0  0  0  0
   -5.4564   10.2182    0.0000 C   0  0  0  0  0  0  0  0  0  0  0  0
   -4.0861   10.8283    0.0000 C   0  0  0  0  0  0  0  0  0  0  0  0
   -3.9293   12.3201    0.0000 C   0  0  0  0  0  0  0  0  0  0  0  0
   -5.1428   13.2018    0.0000 C   0  0  0  0  0  0  0  0  0  0  0  0
   -6.5132   12.5917    0.0000 C   0  0  0  0  0  0  0  0  0  0  0  0
   -6.6699   11.0999    0.0000 C   0  0  0  0  0  0  0  0  0  0  0  0
   -3.9583    5.1814    0.0000 C   0  0  0  0  0  0  0  0  0  0  0  0
   -4.4218    3.7548    0.0000 C   0  0  0  0  0  0  0  0  0  0  0  0
   -5.8891    3.4430    0.0000 C   0  0  0  0  0  0  0  0  0  0  0  0
   -7.0038    4.4467    0.0000 C   0  0  0  0  0  0  0  0  0  0  0  0
   -8.3028    3.6967    0.0000 C   0  0  0  0  0  0  0  0  0  0  0  0
   -7.9910    2.2294    0.0000 C   0  0  0  0  0  0  0  0  0  0  0  0
   -8.9947    1.1147    0.0000 C   0  0  0  0  0  0  0  0  0  0  0  0
  -10.4619    1.4266    0.0000 O   0  0  0  0  0  0  0  0  0  0  0  0
   -8.5311   -0.3119    0.0000 N   0  0  0  0  0  0  0  0  0  0  0  0
   -9.5348   -1.4266    0.0000 C   0  0  0  0  0  0  0  0  0  0  0  0
  -11.0266   -1.2698    0.0000 N   0  0  0  0  0  0  0  0  0  0  0  0
  -11.6367   -2.6401    0.0000 N   0  0  0  0  0  0  0  0  0  0  0  0
  -10.5220   -3.6438    0.0000 N   0  0  0  0  0  0  0  0  0  0  0  0
   -9.2230   -2.8938    0.0000 N   0  0  0  0  0  0  0  0  0  0  0  0
   -7.8526   -3.5039    0.0000 C   0  0  0  0  0  0  0  0  0  0  0  0
   -6.6391   -2.6222    0.0000 C   0  0  0  0  0  0  0  0  0  0  0  0
   -5.2688   -3.2323    0.0000 C   0  0  0  0  0  0  0  0  0  0  0  0
   -5.1120   -4.7241    0.0000 C   0  0  0  0  0  0  0  0  0  0  0  0
   -6.3255   -5.6058    0.0000 C   0  0  0  0  0  0  0  0  0  0  0  0
   -7.6958   -4.9957    0.0000 C   0  0  0  0  0  0  0  0  0  0  0  0
   -6.4992    2.0726    0.0000 C   0  0  0  0  0  0  0  0  0  0  0  0
   -6.1978    1.0215    0.0000 O   0  0  0  0  0  0  0  0  0  0  0  0
   -0.7500    1.2990    0.0000 C   0  0  0  0  0  0  0  0  0  0  0  0
   -1.1634    2.7410    0.0000 O   0  0  0  0  0  0  0  0  0  0  0  0
    0.7500    1.2990    0.0000 N   0  0  0  0  0  0  0  0  0  0  0  0
  1  2  1  0
  2  3  2  0
  3  4  1  0
  4  5  2  0
  5  6  1  0
  6  7  2  0
  7  8  1  0
  8  9  2  0
  9 10  1  0
 10 11  1  0
 11 12  2  0
 12 13  1  0
 13 14  2  0
 14 15  1  0
 15 16  2  0
 16 17  1  0
 17 18  2  0
 18 19  1  0
 19 20  2  0
 20 21  1  0
 21 22  2  0
 22 23  1  0
 23 24  2  0
 18 25  1  0
 25 26  2  0
 26 27  1  0
 27 28  2  0
 28 29  1  0
 29 30  2  0
 30 31  1  0
 31 32  1  0
 32 33  2  0
 33 34  1  0
 34 35  2  0
 35 36  1  0
 36 37  2  0
 14 38  1  0
 38 39  2  0
 39 40  1  0
 40 41  2  0
 41 42  1  0
 42 43  2  0
 43 44  1  0
 44 45  2  0
 44 46  1  0
 46 47  1  0
 47 48  2  0
 48 49  1  0
 49 50  2  0
 50 51  1  0
 51 52  1  0
 52 53  2  0
 53 54  1  0
 54 55  2  0
 55 56  1  0
 56 57  2  0
 43 58  1  0
 58 59  2  0
  5 60  1  0
 60 61  2  0
 60 62  1  0
 62  2  1  0
 10  6  1  0
 39 11  1  0
 58 40  1  0
 26 15  1  0
 31 27  1  0
 37 32  1  0
 51 47  1  0
 57 52  1  0
 24 19  1  0
M  END
>  <Title>  (340) 
idAANBgen7

$$$$

     RDKit          2D

 27 30  0  0  0  0  0  0  0  0999 V2000
   10.0355    0.6881    0.0000 C   0  0  0  0  0  0  0  0  0  0  0  0
    8.5683    0.3762    0.0000 C   0  0  0  0  0  0  0  0  0  0  0  0
    7.4536    1.3799    0.0000 C   0  0  0  0  0  0  0  0  0  0  0  0
    6.1545    0.6299    0.0000 C   0  0  0  0  0  0  0  0  0  0  0  0
    6.4664   -0.8373    0.0000 C   0  0  0  0  0  0  0  0  0  0  0  0
    5.4627   -1.9520    0.0000 C   0  0  0  0  0  0  0  0  0  0  0  0
    5.9262   -3.3786    0.0000 O   0  0  0  0  0  0  0  0  0  0  0  0
    3.9955   -1.6402    0.0000 N   0  0  0  0  0  0  0  0  0  0  0  0
    2.9918   -2.7549    0.0000 C   0  0  0  0  0  0  0  0  0  0  0  0
    3.3037   -4.2221    0.0000 N   0  0  0  0  0  0  0  0  0  0  0  0
    2.0046   -4.9721    0.0000 N   0  0  0  0  0  0  0  0  0  0  0  0
    0.8899   -3.9684    0.0000 N   0  0  0  0  0  0  0  0  0  0  0  0
    1.5000   -2.5981    0.0000 N   0  0  0  0  0  0  0  0  0  0  0  0
    0.7500   -1.2990    0.0000 C   0  0  0  0  0  0  0  0  0  0  0  0
    1.5000    0.0000    0.0000 C   0  0  0  0  0  0  0  0  0  0  0  0
    0.7500    1.2990    0.0000 C   0  0  0  0  0  0  0  0  0  0  0  0
   -0.7500    1.2990    0.0000 C   0  0  0  0  0  0  0  0  0  0  0  0
   -1.5000    2.5981    0.0000 C   0  0  0  0  0  0  0  0  0  0  0  0
   -0.7500    3.8971    0.0000 C   0  0  0  0  0  0  0  0  0  0  0  0
   -1.5000    5.1962    0.0000 C   0  0  0  0  0  0  0  0  0  0  0  0
   -3.0000    5.1962    0.0000 C   0  0  0  0  0  0  0  0  0  0  0  0
   -3.7500    3.8971    0.0000 C   0  0  0  0  0  0  0  0  0  0  0  0
   -3.0000    2.5981    0.0000 C   0  0  0  0  0  0  0  0  0  0  0  0
   -1.5000    0.0000    0.0000 C   0  0  0  0  0  0  0  0  0  0  0  0
   -0.7500   -1.2990    0.0000 C   0  0  0  0  0  0  0  0  0  0  0  0
    7.9582   -0.9941    0.0000 C   0  0  0  0  0  0  0  0  0  0  0  0
    8.7082   -2.2931    0.0000 O   0  0  0  0  0  0  0  0  0  0  0  0
  1  2  1  0
  2  3  2  0
  3  4  1  0
  4  5  2  0
  5  6  1  0
  6  7  2  0
  6  8  1  0
  8  9  1  0
  9 10  2  0
 10 11  1  0
 11 12  2  0
 12 13  1  0
 13 14  1  0
 14 15  2  0
 15 16  1  0
 16 17  2  0
 17 18  1  0
 18 19  2  0
 19 20  1  0
 20 21  2  0
 21 22  1  0
 22 23  2  0
 17 24  1  0
 24 25  2  0
  5 26  1  0
 26 27  2  0
 26  2  1  0
 13  9  1  0
 25 14  1  0
 23 18  1  0
M  END
>  <Title>  (341) 
idAANCgen7

$$$$

     RDKit          2D

 17 17  0  0  0  0  0  0  0  0999 V2000
    6.8839   -1.2990    0.0000 C   0  0  0  0  0  0  0  0  0  0  0  0
    5.3839   -1.2990    0.0000 C   0  0  0  0  0  0  0  0  0  0  0  0
    4.6339   -2.5981    0.0000 C   0  0  0  0  0  0  0  0  0  0  0  0
    4.6339    0.0000    0.0000 C   0  0  0  0  0  0  0  0  0  0  0  0
    3.1339    0.0000    0.0000 C   0  0  0  0  0  0  0  0  0  0  0  0
    2.7750    1.4564    0.0000 C   0  0  0  0  0  0  0  0  0  0  0  0
    1.7803    2.5792    0.0000 C   0  0  0  0  0  0  0  0  0  0  0  0
    0.3778    3.1111    0.0000 C   0  0  0  0  0  0  0  0  0  0  0  0
   -1.1113    2.9303    0.0000 C   0  0  0  0  0  0  0  0  0  0  0  0
   -2.3458    2.0782    0.0000 C   0  0  0  0  0  0  0  0  0  0  0  0
   -3.0429    0.7500    0.0000 C   0  0  0  0  0  0  0  0  0  0  0  0
   -3.0429   -0.7500    0.0000 C   0  0  0  0  0  0  0  0  0  0  0  0
   -2.3458   -2.0782    0.0000 C   0  0  0  0  0  0  0  0  0  0  0  0
   -1.1113   -2.9303    0.0000 C   0  0  0  0  0  0  0  0  0  0  0  0
    0.3778   -3.1111    0.0000 C   0  0  0  0  0  0  0  0  0  0  0  0
    1.7803   -2.5792    0.0000 C   0  0  0  0  0  0  0  0  0  0  0  0
    2.7750   -1.4564    0.0000 C   0  0  0  0  0  0  0  0  0  0  0  0
  1  2  1  0
  2  3  1  0
  2  4  1  0
  4  5  1  0
  5  6  1  0
  6  7  1  0
  7  8  1  0
  8  9  1  0
  9 10  1  0
 10 11  1  0
 11 12  1  0
 12 13  1  0
 13 14  1  0
 14 15  1  0
 15 16  1  0
 16 17  1  0
 17  5  1  0
M  END
>  <Title>  (342) 
idAANDgen7

$$$$

     RDKit          2D

 32 35  0  0  0  0  0  0  0  0999 V2000
   -8.2500   -6.4952    0.0000 C   0  0  0  0  0  0  0  0  0  0  0  0
   -7.5000   -5.1962    0.0000 C   0  0  0  0  0  0  0  0  0  0  0  0
   -6.0000   -5.1962    0.0000 C   0  0  0  0  0  0  0  0  0  0  0  0
   -5.2500   -3.8971    0.0000 C   0  0  0  0  0  0  0  0  0  0  0  0
   -6.0000   -2.5981    0.0000 C   0  0  0  0  0  0  0  0  0  0  0  0
   -5.2500   -1.2990    0.0000 O   0  0  0  0  0  0  0  0  0  0  0  0
   -6.0000    0.0000    0.0000 C   0  0  0  0  0  0  0  0  0  0  0  0
   -7.5000    0.0000    0.0000 O   0  0  0  0  0  0  0  0  0  0  0  0
   -5.2500    1.2990    0.0000 N   0  0  0  0  0  0  0  0  0  0  0  0
   -6.0000    2.5981    0.0000 C   0  0  0  0  0  0  0  0  0  0  0  0
   -7.4918    2.7549    0.0000 N   0  0  0  0  0  0  0  0  0  0  0  0
   -7.8037    4.2221    0.0000 N   0  0  0  0  0  0  0  0  0  0  0  0
   -6.5046    4.9721    0.0000 N   0  0  0  0  0  0  0  0  0  0  0  0
   -5.3899    3.9684    0.0000 N   0  0  0  0  0  0  0  0  0  0  0  0
   -3.9227    4.2803    0.0000 C   0  0  0  0  0  0  0  0  0  0  0  0
   -2.8080    3.2766    0.0000 C   0  0  0  0  0  0  0  0  0  0  0  0
   -1.5089    4.0266    0.0000 C   0  0  0  0  0  0  0  0  0  0  0  0
   -1.8208    5.4938    0.0000 C   0  0  0  0  0  0  0  0  0  0  0  0
   -0.8171    6.6085    0.0000 C   0  0  0  0  0  0  0  0  0  0  0  0
   -1.2806    8.0351    0.0000 O   0  0  0  0  0  0  0  0  0  0  0  0
    0.6501    6.2966    0.0000 N   0  0  0  0  0  0  0  0  0  0  0  0
    1.6538    7.4114    0.0000 C   0  0  0  0  0  0  0  0  0  0  0  0
    1.1903    8.8379    0.0000 C   0  0  0  0  0  0  0  0  0  0  0  0
    2.1940    9.9527    0.0000 C   0  0  0  0  0  0  0  0  0  0  0  0
    3.6612    9.6408    0.0000 C   0  0  0  0  0  0  0  0  0  0  0  0
    4.1247    8.2142    0.0000 C   0  0  0  0  0  0  0  0  0  0  0  0
    3.1210    7.0995    0.0000 C   0  0  0  0  0  0  0  0  0  0  0  0
   -3.3126    5.6506    0.0000 C   0  0  0  0  0  0  0  0  0  0  0  0
   -4.0626    6.9496    0.0000 O   0  0  0  0  0  0  0  0  0  0  0  0
   -7.5000   -2.5981    0.0000 C   0  0  0  0  0  0  0  0  0  0  0  0
   -8.2500   -1.2990    0.0000 O   0  0  0  0  0  0  0  0  0  0  0  0
   -8.2500   -3.8971    0.0000 N   0  0  0  0  0  0  0  0  0  0  0  0
  1  2  1  0
  2  3  2  0
  3  4  1  0
  4  5  2  0
  5  6  1  0
  6  7  1  0
  7  8  2  0
  7  9  1  0
  9 10  1  0
 10 11  2  0
 11 12  1  0
 12 13  2  0
 13 14  1  0
 14 15  1  0
 15 16  2  0
 16 17  1  0
 17 18  2  0
 18 19  1  0
 19 20  2  0
 19 21  1  0
 21 22  1  0
 22 23  2  0
 23 24  1  0
 24 25  2  0
 25 26  1  0
 26 27  2  0
 18 28  1  0
 28 29  2  0
  5 30  1  0
 30 31  2  0
 30 32  1  0
 32  2  1  0
 14 10  1  0
 28 15  1  0
 27 22  1  0
M  END
>  <Title>  (343) 
idAANEgen7

$$$$

     RDKit          2D

 32 35  0  0  0  0  0  0  0  0999 V2000
   -1.6702  -14.4958    0.0000 C   0  0  0  0  0  0  0  0  0  0  0  0
   -0.6665  -13.3811    0.0000 C   0  0  0  0  0  0  0  0  0  0  0  0
    0.8253  -13.5379    0.0000 C   0  0  0  0  0  0  0  0  0  0  0  0
    1.4354  -12.1675    0.0000 C   0  0  0  0  0  0  0  0  0  0  0  0
    0.3207  -11.1638    0.0000 C   0  0  0  0  0  0  0  0  0  0  0  0
    0.4775   -9.6721    0.0000 C   0  0  0  0  0  0  0  0  0  0  0  0
   -0.7360   -8.7904    0.0000 O   0  0  0  0  0  0  0  0  0  0  0  0
    1.8478   -9.0619    0.0000 N   0  0  0  0  0  0  0  0  0  0  0  0
    2.0046   -7.5702    0.0000 C   0  0  0  0  0  0  0  0  0  0  0  0
    0.8899   -6.5665    0.0000 N   0  0  0  0  0  0  0  0  0  0  0  0
    1.5000   -5.1962    0.0000 C   0  0  0  0  0  0  0  0  0  0  0  0
    0.7500   -3.8971    0.0000 C   0  0  0  0  0  0  0  0  0  0  0  0
   -0.7500   -3.8971    0.0000 O   0  0  0  0  0  0  0  0  0  0  0  0
    1.5000   -2.5981    0.0000 N   0  0  0  0  0  0  0  0  0  0  0  0
    0.7500   -1.2990    0.0000 C   0  0  0  0  0  0  0  0  0  0  0  0
    1.5000    0.0000    0.0000 C   0  0  0  0  0  0  0  0  0  0  0  0
    0.7500    1.2990    0.0000 C   0  0  0  0  0  0  0  0  0  0  0  0
   -0.7500    1.2990    0.0000 C   0  0  0  0  0  0  0  0  0  0  0  0
   -1.5000    0.0000    0.0000 C   0  0  0  0  0  0  0  0  0  0  0  0
   -0.7500   -1.2990    0.0000 C   0  0  0  0  0  0  0  0  0  0  0  0
    2.9918   -5.3529    0.0000 C   0  0  0  0  0  0  0  0  0  0  0  0
    3.3037   -6.8202    0.0000 C   0  0  0  0  0  0  0  0  0  0  0  0
    4.6740   -7.4303    0.0000 C   0  0  0  0  0  0  0  0  0  0  0  0
    4.8308   -8.9221    0.0000 C   0  0  0  0  0  0  0  0  0  0  0  0
    6.2011   -9.5322    0.0000 C   0  0  0  0  0  0  0  0  0  0  0  0
    7.4146   -8.6505    0.0000 C   0  0  0  0  0  0  0  0  0  0  0  0
    8.7849   -9.2606    0.0000 C   0  0  0  0  0  0  0  0  0  0  0  0
    7.2578   -7.1587    0.0000 C   0  0  0  0  0  0  0  0  0  0  0  0
    8.4713   -6.2770    0.0000 O   0  0  0  0  0  0  0  0  0  0  0  0
    5.8875   -6.5486    0.0000 N   0  0  0  0  0  0  0  0  0  0  0  0
   -0.9783  -11.9138    0.0000 C   0  0  0  0  0  0  0  0  0  0  0  0
   -2.3486  -11.3037    0.0000 O   0  0  0  0  0  0  0  0  0  0  0  0
  1  2  1  0
  2  3  2  0
  3  4  1  0
  4  5  2  0
  5  6  1  0
  6  7  2  0
  6  8  1  0
  8  9  1  0
  9 10  2  0
 10 11  1  0
 11 12  1  0
 12 13  2  0
 12 14  1  0
 14 15  1  0
 15 16  2  0
 16 17  1  0
 17 18  2  0
 18 19  1  0
 19 20  2  0
 11 21  1  0
 21 22  2  0
 22 23  1  0
 23 24  2  0
 24 25  1  0
 25 26  2  0
 26 27  1  0
 26 28  1  0
 28 29  2  0
 28 30  1  0
  5 31  1  0
 31 32  2  0
 31  2  1  0
 22  9  1  0
 30 23  1  0
 20 15  1  0
M  END
>  <Title>  (344) 
idAANFgen7

$$$$

     RDKit          2D

 13 13  0  0  0  0  0  0  0  0999 V2000
    5.6621   -0.0000    0.0000 N   0  0  0  0  0  0  0  0  0  0  0  0
    4.1621    0.0000    0.0000 C   0  0  0  0  0  0  0  0  0  0  0  0
    2.6621    0.0000    0.0000 C   0  0  0  0  0  0  0  0  0  0  0  0
    2.2395    1.4392    0.0000 C   0  0  0  0  0  0  0  0  0  0  0  0
    1.1059    2.4215    0.0000 C   0  0  0  0  0  0  0  0  0  0  0  0
   -0.3789    2.6350    0.0000 C   0  0  0  0  0  0  0  0  0  0  0  0
   -1.7433    2.0119    0.0000 C   0  0  0  0  0  0  0  0  0  0  0  0
   -2.5543    0.7500    0.0000 C   0  0  0  0  0  0  0  0  0  0  0  0
   -2.5543   -0.7500    0.0000 C   0  0  0  0  0  0  0  0  0  0  0  0
   -1.7433   -2.0119    0.0000 C   0  0  0  0  0  0  0  0  0  0  0  0
   -0.3789   -2.6350    0.0000 C   0  0  0  0  0  0  0  0  0  0  0  0
    1.1059   -2.4215    0.0000 C   0  0  0  0  0  0  0  0  0  0  0  0
    2.2395   -1.4392    0.0000 C   0  0  0  0  0  0  0  0  0  0  0  0
  1  2  3  0
  2  3  1  0
  3  4  1  0
  4  5  1  0
  5  6  1  0
  6  7  1  0
  7  8  1  0
  8  9  1  0
  9 10  1  0
 10 11  1  0
 11 12  1  0
 12 13  1  0
 13  3  1  0
M  END
>  <Title>  (345) 
idAANGgen7

$$$$

     RDKit          2D

 36 40  0  0  0  0  0  0  0  0999 V2000
   -6.3361   10.7831    0.0000 C   0  0  0  0  0  0  0  0  0  0  0  0
   -4.8901   11.1822    0.0000 C   0  0  0  0  0  0  0  0  0  0  0  0
   -4.5127   12.6339    0.0000 C   0  0  0  0  0  0  0  0  0  0  0  0
   -3.0668   13.0330    0.0000 C   0  0  0  0  0  0  0  0  0  0  0  0
   -1.9982   11.9803    0.0000 C   0  0  0  0  0  0  0  0  0  0  0  0
   -0.5523   12.3793    0.0000 C   0  0  0  0  0  0  0  0  0  0  0  0
   -0.1749   13.8311    0.0000 O   0  0  0  0  0  0  0  0  0  0  0  0
    0.5163   11.3266    0.0000 N   0  0  0  0  0  0  0  0  0  0  0  0
    1.9622   11.7257    0.0000 C   0  0  0  0  0  0  0  0  0  0  0  0
    2.4893   13.1300    0.0000 N   0  0  0  0  0  0  0  0  0  0  0  0
    3.9878   13.0627    0.0000 N   0  0  0  0  0  0  0  0  0  0  0  0
    4.3868   11.6168    0.0000 N   0  0  0  0  0  0  0  0  0  0  0  0
    3.1350   10.7904    0.0000 N   0  0  0  0  0  0  0  0  0  0  0  0
    3.0677    9.2920    0.0000 C   0  0  0  0  0  0  0  0  0  0  0  0
    1.7363    8.6010    0.0000 C   0  0  0  0  0  0  0  0  0  0  0  0
    1.6690    7.1025    0.0000 C   0  0  0  0  0  0  0  0  0  0  0  0
    2.9331    6.2950    0.0000 C   0  0  0  0  0  0  0  0  0  0  0  0
    2.8658    4.7965    0.0000 C   0  0  0  0  0  0  0  0  0  0  0  0
    4.0385    3.8613    0.0000 C   0  0  0  0  0  0  0  0  0  0  0  0
    3.5115    2.4569    0.0000 C   0  0  0  0  0  0  0  0  0  0  0  0
    2.0130    2.5242    0.0000 C   0  0  0  0  0  0  0  0  0  0  0  0
    1.0777    1.3515    0.0000 C   0  0  0  0  0  0  0  0  0  0  0  0
    1.7286    0.0000    0.0000 C   0  0  0  0  0  0  0  0  0  0  0  0
    1.0777   -1.3515    0.0000 C   0  0  0  0  0  0  0  0  0  0  0  0
   -0.3846   -1.6852    0.0000 C   0  0  0  0  0  0  0  0  0  0  0  0
   -1.5574   -0.7500    0.0000 C   0  0  0  0  0  0  0  0  0  0  0  0
   -1.5574    0.7500    0.0000 C   0  0  0  0  0  0  0  0  0  0  0  0
   -0.3846    1.6852    0.0000 C   0  0  0  0  0  0  0  0  0  0  0  0
    1.6139    3.9701    0.0000 C   0  0  0  0  0  0  0  0  0  0  0  0
    0.2096    4.4972    0.0000 O   0  0  0  0  0  0  0  0  0  0  0  0
    4.2645    6.9859    0.0000 N   0  0  0  0  0  0  0  0  0  0  0  0
    4.3318    8.4844    0.0000 C   0  0  0  0  0  0  0  0  0  0  0  0
    5.6631    9.1754    0.0000 O   0  0  0  0  0  0  0  0  0  0  0  0
   -2.3756   10.5285    0.0000 C   0  0  0  0  0  0  0  0  0  0  0  0
   -1.3070    9.4758    0.0000 O   0  0  0  0  0  0  0  0  0  0  0  0
   -3.8215   10.1295    0.0000 N   0  0  0  0  0  0  0  0  0  0  0  0
  1  2  1  0
  2  3  2  0
  3  4  1  0
  4  5  2  0
  5  6  1  0
  6  7  2  0
  6  8  1  0
  8  9  1  0
  9 10  2  0
 10 11  1  0
 11 12  2  0
 12 13  1  0
 13 14  1  0
 14 15  2  0
 15 16  1  0
 16 17  2  0
 17 18  1  0
 18 19  2  0
 19 20  1  0
 20 21  2  0
 21 22  1  0
 22 23  2  0
 23 24  1  0
 24 25  1  0
 25 26  1  0
 26 27  1  0
 27 28  2  0
 21 29  1  0
 29 30  2  0
 17 31  1  0
 31 32  1  0
 32 33  2  0
  5 34  1  0
 34 35  2  0
 34 36  1  0
 36  2  1  0
 13  9  1  0
 32 14  1  0
 29 18  1  0
 28 22  1  0
M  END
>  <Title>  (346) 
idAANHgen7

$$$$

     RDKit          2D

 33 33  0  0  0  0  0  0  0  0999 V2000
    8.6751   -0.0000    0.0000 C   0  0  0  0  0  0  0  0  0  0  0  0
    7.1751    0.0000    0.0000 C   0  0  0  0  0  0  0  0  0  0  0  0
    7.0183   -1.4918    0.0000 C   0  0  0  0  0  0  0  0  0  0  0  0
    6.5548   -2.9184    0.0000 C   0  0  0  0  0  0  0  0  0  0  0  0
    5.8048   -4.2174    0.0000 C   0  0  0  0  0  0  0  0  0  0  0  0
    4.8011   -5.3321    0.0000 C   0  0  0  0  0  0  0  0  0  0  0  0
    3.5875   -6.2138    0.0000 C   0  0  0  0  0  0  0  0  0  0  0  0
    2.2172   -6.8239    0.0000 C   0  0  0  0  0  0  0  0  0  0  0  0
    0.7500   -7.1358    0.0000 C   0  0  0  0  0  0  0  0  0  0  0  0
   -0.7500   -7.1358    0.0000 C   0  0  0  0  0  0  0  0  0  0  0  0
   -2.2172   -6.8239    0.0000 C   0  0  0  0  0  0  0  0  0  0  0  0
   -3.5875   -6.2138    0.0000 C   0  0  0  0  0  0  0  0  0  0  0  0
   -4.8011   -5.3321    0.0000 C   0  0  0  0  0  0  0  0  0  0  0  0
   -5.8048   -4.2174    0.0000 C   0  0  0  0  0  0  0  0  0  0  0  0
   -6.5548   -2.9184    0.0000 C   0  0  0  0  0  0  0  0  0  0  0  0
   -7.0183   -1.4918    0.0000 C   0  0  0  0  0  0  0  0  0  0  0  0
   -7.1751    0.0000    0.0000 C   0  0  0  0  0  0  0  0  0  0  0  0
   -7.0183    1.4918    0.0000 C   0  0  0  0  0  0  0  0  0  0  0  0
   -6.5548    2.9184    0.0000 C   0  0  0  0  0  0  0  0  0  0  0  0
   -5.8048    4.2174    0.0000 C   0  0  0  0  0  0  0  0  0  0  0  0
   -4.8011    5.3321    0.0000 C   0  0  0  0  0  0  0  0  0  0  0  0
   -3.5875    6.2138    0.0000 C   0  0  0  0  0  0  0  0  0  0  0  0
   -2.2172    6.8239    0.0000 C   0  0  0  0  0  0  0  0  0  0  0  0
   -0.7500    7.1358    0.0000 C   0  0  0  0  0  0  0  0  0  0  0  0
    0.7500    7.1358    0.0000 C   0  0  0  0  0  0  0  0  0  0  0  0
    2.2172    6.8239    0.0000 C   0  0  0  0  0  0  0  0  0  0  0  0
    3.5875    6.2138    0.0000 C   0  0  0  0  0  0  0  0  0  0  0  0
    4.8011    5.3321    0.0000 C   0  0  0  0  0  0  0  0  0  0  0  0
    5.8048    4.2174    0.0000 C   0  0  0  0  0  0  0  0  0  0  0  0
    7.0183    5.0991    0.0000 C   0  0  0  0  0  0  0  0  0  0  0  0
    6.5548    2.9184    0.0000 C   0  0  0  0  0  0  0  0  0  0  0  0
    7.9251    3.5285    0.0000 O   0  0  0  0  0  0  0  0  0  0  0  0
    7.0183    1.4918    0.0000 N   0  0  0  0  0  0  0  0  0  0  0  0
  1  2  1  0
  2  3  2  0
  3  4  1  0
  4  5  2  0
  5  6  1  0
  6  7  2  0
  7  8  1  0
  8  9  2  0
  9 10  1  0
 10 11  2  0
 11 12  1  0
 12 13  2  0
 13 14  1  0
 14 15  2  0
 15 16  1  0
 16 17  2  0
 17 18  1  0
 18 19  2  0
 19 20  1  0
 20 21  2  0
 21 22  1  0
 22 23  2  0
 23 24  1  0
 24 25  2  0
 25 26  1  0
 26 27  2  0
 27 28  1  0
 28 29  2  0
 29 30  1  0
 29 31  1  0
 31 32  2  0
 31 33  1  0
 33  2  1  0
M  END
>  <Title>  (347) 
idAANIgen7

$$$$

     RDKit          2D

 46 52  0  0  0  0  0  0  0  0999 V2000
    3.0000    0.0000    0.0000 C   0  0  0  0  0  0  0  0  0  0  0  0
    1.5000    0.0000    0.0000 C   0  0  0  0  0  0  0  0  0  0  0  0
    0.7500   -1.2990    0.0000 C   0  0  0  0  0  0  0  0  0  0  0  0
   -0.7500   -1.2990    0.0000 C   0  0  0  0  0  0  0  0  0  0  0  0
   -1.5000    0.0000    0.0000 C   0  0  0  0  0  0  0  0  0  0  0  0
   -3.0000    0.0000    0.0000 C   0  0  0  0  0  0  0  0  0  0  0  0
   -3.7500    1.2990    0.0000 C   0  0  0  0  0  0  0  0  0  0  0  0
   -5.2500    1.2990    0.0000 C   0  0  0  0  0  0  0  0  0  0  0  0
   -6.0000    0.0000    0.0000 C   0  0  0  0  0  0  0  0  0  0  0  0
   -7.5000    0.0000    0.0000 C   0  0  0  0  0  0  0  0  0  0  0  0
   -8.2500   -1.2990    0.0000 O   0  0  0  0  0  0  0  0  0  0  0  0
   -8.2500    1.2990    0.0000 N   0  0  0  0  0  0  0  0  0  0  0  0
   -9.7500    1.2990    0.0000 C   0  0  0  0  0  0  0  0  0  0  0  0
  -10.6317    0.0855    0.0000 N   0  0  0  0  0  0  0  0  0  0  0  0
  -12.0583    0.5490    0.0000 N   0  0  0  0  0  0  0  0  0  0  0  0
  -12.0583    2.0490    0.0000 N   0  0  0  0  0  0  0  0  0  0  0  0
  -10.6317    2.5126    0.0000 N   0  0  0  0  0  0  0  0  0  0  0  0
  -10.1682    3.9391    0.0000 C   0  0  0  0  0  0  0  0  0  0  0  0
   -8.7009    4.2510    0.0000 C   0  0  0  0  0  0  0  0  0  0  0  0
   -8.2374    5.6776    0.0000 C   0  0  0  0  0  0  0  0  0  0  0  0
   -9.2411    6.7923    0.0000 C   0  0  0  0  0  0  0  0  0  0  0  0
   -8.7776    8.2189    0.0000 C   0  0  0  0  0  0  0  0  0  0  0  0
   -7.3104    8.5308    0.0000 C   0  0  0  0  0  0  0  0  0  0  0  0
   -6.8468    9.9574    0.0000 C   0  0  0  0  0  0  0  0  0  0  0  0
   -7.8505   11.0721    0.0000 C   0  0  0  0  0  0  0  0  0  0  0  0
   -9.3177   10.7602    0.0000 C   0  0  0  0  0  0  0  0  0  0  0  0
   -9.7813    9.3336    0.0000 C   0  0  0  0  0  0  0  0  0  0  0  0
  -10.7083    6.4805    0.0000 C   0  0  0  0  0  0  0  0  0  0  0  0
  -11.1718    5.0539    0.0000 C   0  0  0  0  0  0  0  0  0  0  0  0
   -5.2500   -1.2990    0.0000 C   0  0  0  0  0  0  0  0  0  0  0  0
   -3.7500   -1.2990    0.0000 C   0  0  0  0  0  0  0  0  0  0  0  0
   -3.0000   -2.5981    0.0000 C   0  0  0  0  0  0  0  0  0  0  0  0
   -1.5000   -2.5981    0.0000 C   0  0  0  0  0  0  0  0  0  0  0  0
   -0.7500   -3.8971    0.0000 C   0  0  0  0  0  0  0  0  0  0  0  0
   -1.5000   -5.1962    0.0000 C   0  0  0  0  0  0  0  0  0  0  0  0
   -3.0000   -5.1962    0.0000 C   0  0  0  0  0  0  0  0  0  0  0  0
   -3.7500   -3.8971    0.0000 C   0  0  0  0  0  0  0  0  0  0  0  0
   -5.2500   -3.8971    0.0000 C   0  0  0  0  0  0  0  0  0  0  0  0
   -6.0000   -5.1962    0.0000 C   0  0  0  0  0  0  0  0  0  0  0  0
   -7.5000   -5.1962    0.0000 C   0  0  0  0  0  0  0  0  0  0  0  0
   -8.2500   -3.8971    0.0000 C   0  0  0  0  0  0  0  0  0  0  0  0
   -7.5000   -2.5981    0.0000 C   0  0  0  0  0  0  0  0  0  0  0  0
   -6.0000   -2.5981    0.0000 C   0  0  0  0  0  0  0  0  0  0  0  0
   -0.7500    1.2990    0.0000 C   0  0  0  0  0  0  0  0  0  0  0  0
   -1.5000    2.5981    0.0000 O   0  0  0  0  0  0  0  0  0  0  0  0
    0.7500    1.2990    0.0000 N   0  0  0  0  0  0  0  0  0  0  0  0
  1  2  1  0
  2  3  2  0
  3  4  1  0
  4  5  2  0
  5  6  1  0
  6  7  2  0
  7  8  1  0
  8  9  2  0
  9 10  1  0
 10 11  2  0
 10 12  1  0
 12 13  1  0
 13 14  2  0
 14 15  1  0
 15 16  2  0
 16 17  1  0
 17 18  1  0
 18 19  2  0
 19 20  1  0
 20 21  2  0
 21 22  1  0
 22 23  2  0
 23 24  1  0
 24 25  2  0
 25 26  1  0
 26 27  2  0
 21 28  1  0
 28 29  2  0
  9 30  1  0
 30 31  2  0
 31 32  1  0
 32 33  2  0
 33 34  1  0
 34 35  2  0
 35 36  1  0
 36 37  2  0
 37 38  1  0
 38 39  2  0
 39 40  1  0
 40 41  2  0
 41 42  1  0
 42 43  2  0
  5 44  1  0
 44 45  2  0
 44 46  1  0
 46  2  1  0
 31  6  1  0
 37 32  1  0
 43 38  1  0
 17 13  1  0
 29 18  1  0
 27 22  1  0
M  END
>  <Title>  (348) 
idAANJgen7

$$$$

     RDKit          2D

 30 34  0  0  0  0  0  0  0  0999 V2000
  -10.1624    4.2767    0.0000 C   0  0  0  0  0  0  0  0  0  0  0  0
   -8.9488    3.3950    0.0000 C   0  0  0  0  0  0  0  0  0  0  0  0
   -7.5785    4.0051    0.0000 C   0  0  0  0  0  0  0  0  0  0  0  0
   -6.3650    3.1235    0.0000 C   0  0  0  0  0  0  0  0  0  0  0  0
   -6.5218    1.6317    0.0000 C   0  0  0  0  0  0  0  0  0  0  0  0
   -5.3083    0.7500    0.0000 N   0  0  0  0  0  0  0  0  0  0  0  0
   -5.3083   -0.7500    0.0000 C   0  0  0  0  0  0  0  0  0  0  0  0
   -3.8817   -1.2135    0.0000 C   0  0  0  0  0  0  0  0  0  0  0  0
   -3.0000    0.0000    0.0000 C   0  0  0  0  0  0  0  0  0  0  0  0
   -3.8817    1.2135    0.0000 C   0  0  0  0  0  0  0  0  0  0  0  0
   -3.4182    2.6401    0.0000 C   0  0  0  0  0  0  0  0  0  0  0  0
   -4.2998    3.8536    0.0000 C   0  0  0  0  0  0  0  0  0  0  0  0
   -3.4182    5.0672    0.0000 N   0  0  0  0  0  0  0  0  0  0  0  0
   -1.9916    4.6036    0.0000 N   0  0  0  0  0  0  0  0  0  0  0  0
   -1.9916    3.1036    0.0000 N   0  0  0  0  0  0  0  0  0  0  0  0
   -0.7780    2.2220    0.0000 C   0  0  0  0  0  0  0  0  0  0  0  0
    0.5923    2.8321    0.0000 C   0  0  0  0  0  0  0  0  0  0  0  0
    1.8058    1.9504    0.0000 C   0  0  0  0  0  0  0  0  0  0  0  0
    1.6490    0.4586    0.0000 C   0  0  0  0  0  0  0  0  0  0  0  0
    2.8625   -0.4231    0.0000 C   0  0  0  0  0  0  0  0  0  0  0  0
    4.2329    0.1870    0.0000 C   0  0  0  0  0  0  0  0  0  0  0  0
    5.4464   -0.6946    0.0000 C   0  0  0  0  0  0  0  0  0  0  0  0
    5.2896   -2.1864    0.0000 C   0  0  0  0  0  0  0  0  0  0  0  0
    3.9193   -2.7965    0.0000 C   0  0  0  0  0  0  0  0  0  0  0  0
    2.7057   -1.9149    0.0000 C   0  0  0  0  0  0  0  0  0  0  0  0
    0.2787   -0.1515    0.0000 C   0  0  0  0  0  0  0  0  0  0  0  0
   -0.9348    0.7302    0.0000 C   0  0  0  0  0  0  0  0  0  0  0  0
   -7.8921    1.0216    0.0000 C   0  0  0  0  0  0  0  0  0  0  0  0
   -8.0489   -0.4702    0.0000 O   0  0  0  0  0  0  0  0  0  0  0  0
   -9.1056    1.9033    0.0000 N   0  0  0  0  0  0  0  0  0  0  0  0
  1  2  1  0
  2  3  2  0
  3  4  1  0
  4  5  2  0
  5  6  1  0
  6  7  1  0
  7  8  2  0
  8  9  1  0
  9 10  2  0
 10 11  1  0
 11 12  2  0
 12 13  1  0
 13 14  2  0
 14 15  1  0
 15 16  1  0
 16 17  2  0
 17 18  1  0
 18 19  2  0
 19 20  1  0
 20 21  2  0
 21 22  1  0
 22 23  2  0
 23 24  1  0
 24 25  2  0
 19 26  1  0
 26 27  2  0
  5 28  1  0
 28 29  2  0
 28 30  1  0
 30  2  1  0
 10  6  1  0
 15 11  1  0
 27 16  1  0
 25 20  1  0
M  END
>  <Title>  (349) 
idAANKgen7

$$$$

     RDKit          2D

 22 24  0  0  0  0  0  0  0  0999 V2000
    3.0000    0.0000    0.0000 C   0  0  0  0  0  0  0  0  0  0  0  0
    1.5000    0.0000    0.0000 C   0  0  0  0  0  0  0  0  0  0  0  0
    0.7500   -1.2990    0.0000 C   0  0  0  0  0  0  0  0  0  0  0  0
   -0.7500   -1.2990    0.0000 C   0  0  0  0  0  0  0  0  0  0  0  0
   -1.5000    0.0000    0.0000 C   0  0  0  0  0  0  0  0  0  0  0  0
   -3.0000    0.0000    0.0000 C   0  0  0  0  0  0  0  0  0  0  0  0
   -3.7500   -1.2990    0.0000 O   0  0  0  0  0  0  0  0  0  0  0  0
   -3.7500    1.2990    0.0000 N   0  0  0  0  0  0  0  0  0  0  0  0
   -5.2500    1.2990    0.0000 C   0  0  0  0  0  0  0  0  0  0  0  0
   -6.1317    0.0855    0.0000 N   0  0  0  0  0  0  0  0  0  0  0  0
   -7.5583    0.5490    0.0000 N   0  0  0  0  0  0  0  0  0  0  0  0
   -7.5583    2.0490    0.0000 N   0  0  0  0  0  0  0  0  0  0  0  0
   -6.1317    2.5126    0.0000 N   0  0  0  0  0  0  0  0  0  0  0  0
   -5.6682    3.9391    0.0000 C   0  0  0  0  0  0  0  0  0  0  0  0
   -4.2009    4.2510    0.0000 C   0  0  0  0  0  0  0  0  0  0  0  0
   -3.7374    5.6776    0.0000 C   0  0  0  0  0  0  0  0  0  0  0  0
   -4.7411    6.7923    0.0000 C   0  0  0  0  0  0  0  0  0  0  0  0
   -4.2776    8.2189    0.0000 C   0  0  0  0  0  0  0  0  0  0  0  0
   -6.2083    6.4805    0.0000 N   0  0  0  0  0  0  0  0  0  0  0  0
   -6.6718    5.0539    0.0000 N   0  0  0  0  0  0  0  0  0  0  0  0
   -0.7500    1.2990    0.0000 C   0  0  0  0  0  0  0  0  0  0  0  0
    0.7500    1.2990    0.0000 C   0  0  0  0  0  0  0  0  0  0  0  0
  1  2  1  0
  2  3  2  0
  3  4  1  0
  4  5  2  0
  5  6  1  0
  6  7  2  0
  6  8  1  0
  8  9  1  0
  9 10  2  0
 10 11  1  0
 11 12  2  0
 12 13  1  0
 13 14  1  0
 14 15  2  0
 15 16  1  0
 16 17  2  0
 17 18  1  0
 17 19  1  0
 19 20  2  0
  5 21  1  0
 21 22  2  0
 22  2  1  0
 13  9  1  0
 20 14  1  0
M  END
>  <Title>  (350) 
idAANLgen7

$$$$

     RDKit          2D

 32 36  0  0  0  0  0  0  0  0999 V2000
    3.0000    0.0000    0.0000 C   0  0  0  0  0  0  0  0  0  0  0  0
    1.5000    0.0000    0.0000 C   0  0  0  0  0  0  0  0  0  0  0  0
    0.7500   -1.2990    0.0000 C   0  0  0  0  0  0  0  0  0  0  0  0
   -0.7500   -1.2990    0.0000 C   0  0  0  0  0  0  0  0  0  0  0  0
   -1.5000    0.0000    0.0000 C   0  0  0  0  0  0  0  0  0  0  0  0
   -3.0000    0.0000    0.0000 C   0  0  0  0  0  0  0  0  0  0  0  0
   -3.7500   -1.2990    0.0000 O   0  0  0  0  0  0  0  0  0  0  0  0
   -3.7500    1.2990    0.0000 N   0  0  0  0  0  0  0  0  0  0  0  0
   -5.2500    1.2990    0.0000 C   0  0  0  0  0  0  0  0  0  0  0  0
   -6.1317    0.0855    0.0000 N   0  0  0  0  0  0  0  0  0  0  0  0
   -7.5583    0.5490    0.0000 C   0  0  0  0  0  0  0  0  0  0  0  0
   -7.5583    2.0490    0.0000 N   0  0  0  0  0  0  0  0  0  0  0  0
   -6.1317    2.5126    0.0000 N   0  0  0  0  0  0  0  0  0  0  0  0
   -5.6682    3.9391    0.0000 C   0  0  0  0  0  0  0  0  0  0  0  0
   -4.2009    4.2510    0.0000 C   0  0  0  0  0  0  0  0  0  0  0  0
   -3.7374    5.6776    0.0000 C   0  0  0  0  0  0  0  0  0  0  0  0
   -4.7411    6.7923    0.0000 C   0  0  0  0  0  0  0  0  0  0  0  0
   -4.2776    8.2189    0.0000 C   0  0  0  0  0  0  0  0  0  0  0  0
   -5.1593    9.4324    0.0000 N   0  0  0  0  0  0  0  0  0  0  0  0
   -4.2776   10.6460    0.0000 N   0  0  0  0  0  0  0  0  0  0  0  0
   -2.8510   10.1824    0.0000 N   0  0  0  0  0  0  0  0  0  0  0  0
   -2.8510    8.6824    0.0000 N   0  0  0  0  0  0  0  0  0  0  0  0
   -1.6375    7.8008    0.0000 C   0  0  0  0  0  0  0  0  0  0  0  0
   -1.7943    6.3090    0.0000 C   0  0  0  0  0  0  0  0  0  0  0  0
   -0.5807    5.4273    0.0000 C   0  0  0  0  0  0  0  0  0  0  0  0
    0.7896    6.0374    0.0000 C   0  0  0  0  0  0  0  0  0  0  0  0
    0.9464    7.5292    0.0000 C   0  0  0  0  0  0  0  0  0  0  0  0
   -0.2671    8.4109    0.0000 C   0  0  0  0  0  0  0  0  0  0  0  0
   -6.2083    6.4805    0.0000 C   0  0  0  0  0  0  0  0  0  0  0  0
   -6.6718    5.0539    0.0000 C   0  0  0  0  0  0  0  0  0  0  0  0
   -0.7500    1.2990    0.0000 C   0  0  0  0  0  0  0  0  0  0  0  0
    0.7500    1.2990    0.0000 C   0  0  0  0  0  0  0  0  0  0  0  0
  1  2  1  0
  2  3  2  0
  3  4  1  0
  4  5  2  0
  5  6  1  0
  6  7  2  0
  6  8  1  0
  8  9  1  0
  9 10  2  0
 10 11  1  0
 11 12  2  0
 12 13  1  0
 13 14  1  0
 14 15  2  0
 15 16  1  0
 16 17  2  0
 17 18  1  0
 18 19  2  0
 19 20  1  0
 20 21  2  0
 21 22  1  0
 22 23  1  0
 23 24  2  0
 24 25  1  0
 25 26  2  0
 26 27  1  0
 27 28  2  0
 17 29  1  0
 29 30  2  0
  5 31  1  0
 31 32  2  0
 32  2  1  0
 13  9  1  0
 30 14  1  0
 22 18  1  0
 28 23  1  0
M  END
>  <Title>  (351) 
idAANMgen7

$$$$

     RDKit          2D

 39 44  0  0  0  0  0  0  0  0999 V2000
    3.0000    0.0000    0.0000 C   0  0  0  0  0  0  0  0  0  0  0  0
    1.5000    0.0000    0.0000 C   0  0  0  0  0  0  0  0  0  0  0  0
    0.7500   -1.2990    0.0000 C   0  0  0  0  0  0  0  0  0  0  0  0
   -0.7500   -1.2990    0.0000 C   0  0  0  0  0  0  0  0  0  0  0  0
   -1.5000    0.0000    0.0000 C   0  0  0  0  0  0  0  0  0  0  0  0
   -3.0000    0.0000    0.0000 C   0  0  0  0  0  0  0  0  0  0  0  0
   -3.8817   -1.2135    0.0000 N   0  0  0  0  0  0  0  0  0  0  0  0
   -5.3083   -0.7500    0.0000 N   0  0  0  0  0  0  0  0  0  0  0  0
   -5.3083    0.7500    0.0000 N   0  0  0  0  0  0  0  0  0  0  0  0
   -3.8817    1.2135    0.0000 N   0  0  0  0  0  0  0  0  0  0  0  0
   -3.4182    2.6401    0.0000 C   0  0  0  0  0  0  0  0  0  0  0  0
   -1.9509    2.9520    0.0000 C   0  0  0  0  0  0  0  0  0  0  0  0
   -1.4874    4.3786    0.0000 C   0  0  0  0  0  0  0  0  0  0  0  0
   -2.4911    5.4933    0.0000 C   0  0  0  0  0  0  0  0  0  0  0  0
   -2.0276    6.9199    0.0000 C   0  0  0  0  0  0  0  0  0  0  0  0
   -2.9093    8.1334    0.0000 N   0  0  0  0  0  0  0  0  0  0  0  0
   -2.0276    9.3469    0.0000 N   0  0  0  0  0  0  0  0  0  0  0  0
   -0.6010    8.8834    0.0000 N   0  0  0  0  0  0  0  0  0  0  0  0
   -0.6010    7.3834    0.0000 N   0  0  0  0  0  0  0  0  0  0  0  0
    0.6125    6.5017    0.0000 C   0  0  0  0  0  0  0  0  0  0  0  0
    0.4557    5.0099    0.0000 C   0  0  0  0  0  0  0  0  0  0  0  0
    1.6693    4.1283    0.0000 C   0  0  0  0  0  0  0  0  0  0  0  0
    3.0396    4.7384    0.0000 C   0  0  0  0  0  0  0  0  0  0  0  0
    4.2531    3.8567    0.0000 C   0  0  0  0  0  0  0  0  0  0  0  0
    4.0963    2.3649    0.0000 O   0  0  0  0  0  0  0  0  0  0  0  0
    5.6234    4.4668    0.0000 N   0  0  0  0  0  0  0  0  0  0  0  0
    6.8370    3.5851    0.0000 C   0  0  0  0  0  0  0  0  0  0  0  0
    6.6802    2.0933    0.0000 C   0  0  0  0  0  0  0  0  0  0  0  0
    7.8937    1.2116    0.0000 C   0  0  0  0  0  0  0  0  0  0  0  0
    9.2640    1.8217    0.0000 C   0  0  0  0  0  0  0  0  0  0  0  0
    9.4208    3.3135    0.0000 C   0  0  0  0  0  0  0  0  0  0  0  0
    8.2073    4.1952    0.0000 C   0  0  0  0  0  0  0  0  0  0  0  0
    3.1964    6.2301    0.0000 C   0  0  0  0  0  0  0  0  0  0  0  0
    1.9829    7.1118    0.0000 C   0  0  0  0  0  0  0  0  0  0  0  0
   -3.9583    5.1814    0.0000 C   0  0  0  0  0  0  0  0  0  0  0  0
   -4.4218    3.7548    0.0000 C   0  0  0  0  0  0  0  0  0  0  0  0
   -0.7500    1.2990    0.0000 N   0  0  0  0  0  0  0  0  0  0  0  0
    0.7500    1.2990    0.0000 C   0  0  0  0  0  0  0  0  0  0  0  0
    1.5000    2.5981    0.0000 O   0  0  0  0  0  0  0  0  0  0  0  0
  1  2  1  0
  2  3  2  0
  3  4  1  0
  4  5  2  0
  5  6  1  0
  6  7  2  0
  7  8  1  0
  8  9  2  0
  9 10  1  0
 10 11  1  0
 11 12  2  0
 12 13  1  0
 13 14  2  0
 14 15  1  0
 15 16  2  0
 16 17  1  0
 17 18  2  0
 18 19  1  0
 19 20  1  0
 20 21  2  0
 21 22  1  0
 22 23  2  0
 23 24  1  0
 24 25  2  0
 24 26  1  0
 26 27  1  0
 27 28  2  0
 28 29  1  0
 29 30  2  0
 30 31  1  0
 31 32  2  0
 23 33  1  0
 33 34  2  0
 14 35  1  0
 35 36  2  0
  5 37  1  0
 37 38  1  0
 38 39  2  0
 38  2  1  0
 10  6  1  0
 36 11  1  0
 19 15  1  0
 34 20  1  0
 32 27  1  0
M  END
>  <Title>  (352) 
idAANNgen7

$$$$

     RDKit          2D

 39 43  0  0  0  0  0  0  0  0999 V2000
    3.0000    0.0000    0.0000 C   0  0  0  0  0  0  0  0  0  0  0  0
    1.5000    0.0000    0.0000 C   0  0  0  0  0  0  0  0  0  0  0  0
    0.7500   -1.2990    0.0000 C   0  0  0  0  0  0  0  0  0  0  0  0
   -0.7500   -1.2990    0.0000 C   0  0  0  0  0  0  0  0  0  0  0  0
   -1.5000    0.0000    0.0000 C   0  0  0  0  0  0  0  0  0  0  0  0
   -3.0000    0.0000    0.0000 C   0  0  0  0  0  0  0  0  0  0  0  0
   -3.7500   -1.2990    0.0000 O   0  0  0  0  0  0  0  0  0  0  0  0
   -3.7500    1.2990    0.0000 N   0  0  0  0  0  0  0  0  0  0  0  0
   -5.2500    1.2990    0.0000 C   0  0  0  0  0  0  0  0  0  0  0  0
   -6.1317    0.0855    0.0000 N   0  0  0  0  0  0  0  0  0  0  0  0
   -7.5583    0.5490    0.0000 C   0  0  0  0  0  0  0  0  0  0  0  0
   -8.7718   -0.3326    0.0000 C   0  0  0  0  0  0  0  0  0  0  0  0
   -8.6150   -1.8244    0.0000 O   0  0  0  0  0  0  0  0  0  0  0  0
  -10.1421    0.2775    0.0000 N   0  0  0  0  0  0  0  0  0  0  0  0
  -11.3556   -0.6042    0.0000 C   0  0  0  0  0  0  0  0  0  0  0  0
  -11.3556   -2.1042    0.0000 N   0  0  0  0  0  0  0  0  0  0  0  0
  -12.7822   -2.5677    0.0000 N   0  0  0  0  0  0  0  0  0  0  0  0
  -13.6639   -1.3542    0.0000 N   0  0  0  0  0  0  0  0  0  0  0  0
  -12.7822   -0.1407    0.0000 N   0  0  0  0  0  0  0  0  0  0  0  0
  -13.2457    1.2859    0.0000 C   0  0  0  0  0  0  0  0  0  0  0  0
  -12.2420    2.4006    0.0000 C   0  0  0  0  0  0  0  0  0  0  0  0
  -12.7056    3.8272    0.0000 C   0  0  0  0  0  0  0  0  0  0  0  0
  -14.1728    4.1391    0.0000 C   0  0  0  0  0  0  0  0  0  0  0  0
  -15.1765    3.0243    0.0000 C   0  0  0  0  0  0  0  0  0  0  0  0
  -14.7130    1.5978    0.0000 C   0  0  0  0  0  0  0  0  0  0  0  0
   -7.5583    2.0490    0.0000 C   0  0  0  0  0  0  0  0  0  0  0  0
   -6.1317    2.5126    0.0000 C   0  0  0  0  0  0  0  0  0  0  0  0
   -5.6682    3.9391    0.0000 C   0  0  0  0  0  0  0  0  0  0  0  0
   -4.2009    4.2510    0.0000 C   0  0  0  0  0  0  0  0  0  0  0  0
   -3.7374    5.6776    0.0000 C   0  0  0  0  0  0  0  0  0  0  0  0
   -4.7411    6.7923    0.0000 C   0  0  0  0  0  0  0  0  0  0  0  0
   -4.2776    8.2189    0.0000 C   0  0  0  0  0  0  0  0  0  0  0  0
   -5.2813    9.3336    0.0000 O   0  0  0  0  0  0  0  0  0  0  0  0
   -2.8104    8.5308    0.0000 N   0  0  0  0  0  0  0  0  0  0  0  0
   -2.3468    9.9574    0.0000 O   0  0  0  0  0  0  0  0  0  0  0  0
   -6.2083    6.4805    0.0000 C   0  0  0  0  0  0  0  0  0  0  0  0
   -6.6718    5.0539    0.0000 C   0  0  0  0  0  0  0  0  0  0  0  0
   -0.7500    1.2990    0.0000 C   0  0  0  0  0  0  0  0  0  0  0  0
    0.7500    1.2990    0.0000 C   0  0  0  0  0  0  0  0  0  0  0  0
  1  2  1  0
  2  3  2  0
  3  4  1  0
  4  5  2  0
  5  6  1  0
  6  7  2  0
  6  8  1  0
  8  9  1  0
  9 10  2  0
 10 11  1  0
 11 12  1  0
 12 13  2  0
 12 14  1  0
 14 15  1  0
 15 16  2  0
 16 17  1  0
 17 18  2  0
 18 19  1  0
 19 20  1  0
 20 21  2  0
 21 22  1  0
 22 23  2  0
 23 24  1  0
 24 25  2  0
 11 26  1  0
 26 27  2  0
 27 28  1  0
 28 29  2  0
 29 30  1  0
 30 31  2  0
 31 32  1  0
 32 33  2  0
 32 34  1  0
 34 35  1  0
 31 36  1  0
 36 37  1  0
  5 38  1  0
 38 39  2  0
 39  2  1  0
 27  9  1  0
 37 28  1  0
 19 15  1  0
 25 20  1  0
M  END
>  <Title>  (353) 
idAANOgen7

$$$$

     RDKit          2D

 22 24  0  0  0  0  0  0  0  0999 V2000
    3.0000    0.0000    0.0000 C   0  0  0  0  0  0  0  0  0  0  0  0
    1.5000    0.0000    0.0000 C   0  0  0  0  0  0  0  0  0  0  0  0
    0.7500   -1.2990    0.0000 C   0  0  0  0  0  0  0  0  0  0  0  0
   -0.7500   -1.2990    0.0000 C   0  0  0  0  0  0  0  0  0  0  0  0
   -1.5000    0.0000    0.0000 C   0  0  0  0  0  0  0  0  0  0  0  0
   -3.0000    0.0000    0.0000 C   0  0  0  0  0  0  0  0  0  0  0  0
   -3.8817   -1.2135    0.0000 N   0  0  0  0  0  0  0  0  0  0  0  0
   -5.3083   -0.7500    0.0000 N   0  0  0  0  0  0  0  0  0  0  0  0
   -5.3083    0.7500    0.0000 N   0  0  0  0  0  0  0  0  0  0  0  0
   -3.8817    1.2135    0.0000 N   0  0  0  0  0  0  0  0  0  0  0  0
   -3.4182    2.6401    0.0000 C   0  0  0  0  0  0  0  0  0  0  0  0
   -1.9509    2.9520    0.0000 C   0  0  0  0  0  0  0  0  0  0  0  0
   -1.4874    4.3786    0.0000 C   0  0  0  0  0  0  0  0  0  0  0  0
   -2.4911    5.4933    0.0000 C   0  0  0  0  0  0  0  0  0  0  0  0
   -2.0276    6.9199    0.0000 C   0  0  0  0  0  0  0  0  0  0  0  0
   -3.0313    8.0346    0.0000 O   0  0  0  0  0  0  0  0  0  0  0  0
   -0.5604    7.2317    0.0000 N   0  0  0  0  0  0  0  0  0  0  0  0
   -0.0968    8.6583    0.0000 O   0  0  0  0  0  0  0  0  0  0  0  0
   -3.9583    5.1814    0.0000 C   0  0  0  0  0  0  0  0  0  0  0  0
   -4.4218    3.7548    0.0000 C   0  0  0  0  0  0  0  0  0  0  0  0
   -0.7500    1.2990    0.0000 N   0  0  0  0  0  0  0  0  0  0  0  0
    0.7500    1.2990    0.0000 N   0  0  0  0  0  0  0  0  0  0  0  0
  1  2  1  0
  2  3  2  0
  3  4  1  0
  4  5  2  0
  5  6  1  0
  6  7  2  0
  7  8  1  0
  8  9  2  0
  9 10  1  0
 10 11  1  0
 11 12  2  0
 12 13  1  0
 13 14  2  0
 14 15  1  0
 15 16  2  0
 15 17  1  0
 17 18  1  0
 14 19  1  0
 19 20  1  0
  5 21  1  0
 21 22  2  0
 22  2  1  0
 10  6  1  0
 20 11  1  0
M  END
>  <Title>  (354) 
idAANPgen7

$$$$

     RDKit          2D

 45 51  0  0  0  0  0  0  0  0999 V2000
    3.0000    0.0000    0.0000 C   0  0  0  0  0  0  0  0  0  0  0  0
    1.5000    0.0000    0.0000 C   0  0  0  0  0  0  0  0  0  0  0  0
    0.7500    1.2990    0.0000 C   0  0  0  0  0  0  0  0  0  0  0  0
   -0.7500    1.2990    0.0000 C   0  0  0  0  0  0  0  0  0  0  0  0
   -1.5000    0.0000    0.0000 C   0  0  0  0  0  0  0  0  0  0  0  0
   -3.0000    0.0000    0.0000 C   0  0  0  0  0  0  0  0  0  0  0  0
   -3.8817   -1.2135    0.0000 N   0  0  0  0  0  0  0  0  0  0  0  0
   -5.3083   -0.7500    0.0000 N   0  0  0  0  0  0  0  0  0  0  0  0
   -5.3083    0.7500    0.0000 N   0  0  0  0  0  0  0  0  0  0  0  0
   -3.8817    1.2135    0.0000 N   0  0  0  0  0  0  0  0  0  0  0  0
   -3.4182    2.6401    0.0000 C   0  0  0  0  0  0  0  0  0  0  0  0
   -1.9509    2.9520    0.0000 C   0  0  0  0  0  0  0  0  0  0  0  0
   -1.4874    4.3786    0.0000 C   0  0  0  0  0  0  0  0  0  0  0  0
   -2.4911    5.4933    0.0000 C   0  0  0  0  0  0  0  0  0  0  0  0
   -2.0276    6.9199    0.0000 C   0  0  0  0  0  0  0  0  0  0  0  0
   -3.0313    8.0346    0.0000 O   0  0  0  0  0  0  0  0  0  0  0  0
   -0.5604    7.2317    0.0000 N   0  0  0  0  0  0  0  0  0  0  0  0
   -0.0968    8.6583    0.0000 C   0  0  0  0  0  0  0  0  0  0  0  0
   -0.9785    9.8718    0.0000 N   0  0  0  0  0  0  0  0  0  0  0  0
   -0.0968   11.0854    0.0000 N   0  0  0  0  0  0  0  0  0  0  0  0
    1.3298   10.6218    0.0000 N   0  0  0  0  0  0  0  0  0  0  0  0
    1.3298    9.1218    0.0000 N   0  0  0  0  0  0  0  0  0  0  0  0
    2.5433    8.2402    0.0000 C   0  0  0  0  0  0  0  0  0  0  0  0
    2.3865    6.7484    0.0000 C   0  0  0  0  0  0  0  0  0  0  0  0
    3.6000    5.8667    0.0000 C   0  0  0  0  0  0  0  0  0  0  0  0
    4.9703    6.4768    0.0000 C   0  0  0  0  0  0  0  0  0  0  0  0
    6.1839    5.5951    0.0000 C   0  0  0  0  0  0  0  0  0  0  0  0
    6.0271    4.1033    0.0000 C   0  0  0  0  0  0  0  0  0  0  0  0
    7.2406    3.2217    0.0000 C   0  0  0  0  0  0  0  0  0  0  0  0
    8.6109    3.8318    0.0000 C   0  0  0  0  0  0  0  0  0  0  0  0
    8.7677    5.3236    0.0000 C   0  0  0  0  0  0  0  0  0  0  0  0
    7.5542    6.2052    0.0000 C   0  0  0  0  0  0  0  0  0  0  0  0
    5.1271    7.9686    0.0000 C   0  0  0  0  0  0  0  0  0  0  0  0
    3.9136    8.8503    0.0000 C   0  0  0  0  0  0  0  0  0  0  0  0
    4.0704   10.3421    0.0000 C   0  0  0  0  0  0  0  0  0  0  0  0
    5.4407   10.9522    0.0000 C   0  0  0  0  0  0  0  0  0  0  0  0
    5.5975   12.4439    0.0000 C   0  0  0  0  0  0  0  0  0  0  0  0
    4.3840   13.3256    0.0000 C   0  0  0  0  0  0  0  0  0  0  0  0
    3.0137   12.7155    0.0000 C   0  0  0  0  0  0  0  0  0  0  0  0
    2.8569   11.2237    0.0000 C   0  0  0  0  0  0  0  0  0  0  0  0
   -3.9583    5.1814    0.0000 C   0  0  0  0  0  0  0  0  0  0  0  0
   -4.4218    3.7548    0.0000 C   0  0  0  0  0  0  0  0  0  0  0  0
   -0.7500   -1.2990    0.0000 C   0  0  0  0  0  0  0  0  0  0  0  0
   -1.5000   -2.5981    0.0000 O   0  0  0  0  0  0  0  0  0  0  0  0
    0.7500   -1.2990    0.0000 N   0  0  0  0  0  0  0  0  0  0  0  0
  1  2  1  0
  2  3  2  0
  3  4  1  0
  4  5  2  0
  5  6  1  0
  6  7  2  0
  7  8  1  0
  8  9  2  0
  9 10  1  0
 10 11  1  0
 11 12  2  0
 12 13  1  0
 13 14  2  0
 14 15  1  0
 15 16  2  0
 15 17  1  0
 17 18  1  0
 18 19  2  0
 19 20  1  0
 20 21  2  0
 21 22  1  0
 22 23  1  0
 23 24  2  0
 24 25  1  0
 25 26  2  0
 26 27  1  0
 27 28  2  0
 28 29  1  0
 29 30  2  0
 30 31  1  0
 31 32  2  0
 26 33  1  0
 33 34  2  0
 34 35  1  0
 35 36  2  0
 36 37  1  0
 37 38  2  0
 38 39  1  0
 39 40  2  0
 14 41  1  0
 41 42  2  0
  5 43  1  0
 43 44  2  0
 43 45  1  0
 45  2  1  0
 10  6  1  0
 42 11  1  0
 22 18  1  0
 34 23  1  0
 40 35  1  0
 32 27  1  0
M  END
>  <Title>  (355) 
idAANQgen7

$$$$

     RDKit          2D

 10 10  0  0  0  0  0  0  0  0999 V2000
    3.9786   -1.2990    0.0000 C   0  0  0  0  0  0  0  0  0  0  0  0
    3.2286   -0.0000    0.0000 C   0  0  0  0  0  0  0  0  0  0  0  0
    3.9786    1.2990    0.0000 O   0  0  0  0  0  0  0  0  0  0  0  0
    1.7286    0.0000    0.0000 C   0  0  0  0  0  0  0  0  0  0  0  0
    1.0777    1.3515    0.0000 C   0  0  0  0  0  0  0  0  0  0  0  0
   -0.3846    1.6852    0.0000 C   0  0  0  0  0  0  0  0  0  0  0  0
   -1.5574    0.7500    0.0000 C   0  0  0  0  0  0  0  0  0  0  0  0
   -1.5574   -0.7500    0.0000 C   0  0  0  0  0  0  0  0  0  0  0  0
   -0.3846   -1.6852    0.0000 C   0  0  0  0  0  0  0  0  0  0  0  0
    1.0777   -1.3515    0.0000 C   0  0  0  0  0  0  0  0  0  0  0  0
  1  2  1  0
  2  3  2  0
  2  4  1  0
  4  5  1  0
  5  6  1  0
  6  7  1  0
  7  8  1  0
  8  9  1  0
  9 10  1  0
 10  4  1  0
M  END
>  <Title>  (356) 
idAANRgen7

$$$$

     RDKit          2D

 65 75  0  0  0  0  0  0  0  0999 V2000
    7.5646   -0.1148    0.0000 C   0  0  0  0  0  0  0  0  0  0  0  0
    6.0974   -0.4266    0.0000 C   0  0  0  0  0  0  0  0  0  0  0  0
    4.9826    0.5771    0.0000 C   0  0  0  0  0  0  0  0  0  0  0  0
    3.6836   -0.1729    0.0000 C   0  0  0  0  0  0  0  0  0  0  0  0
    3.9955   -1.6402    0.0000 C   0  0  0  0  0  0  0  0  0  0  0  0
    2.9918   -2.7549    0.0000 C   0  0  0  0  0  0  0  0  0  0  0  0
    3.3037   -4.2221    0.0000 N   0  0  0  0  0  0  0  0  0  0  0  0
    2.0046   -4.9721    0.0000 N   0  0  0  0  0  0  0  0  0  0  0  0
    0.8899   -3.9684    0.0000 N   0  0  0  0  0  0  0  0  0  0  0  0
    1.5000   -2.5981    0.0000 N   0  0  0  0  0  0  0  0  0  0  0  0
    0.7500   -1.2990    0.0000 C   0  0  0  0  0  0  0  0  0  0  0  0
    1.5000    0.0000    0.0000 C   0  0  0  0  0  0  0  0  0  0  0  0
    0.7500    1.2990    0.0000 C   0  0  0  0  0  0  0  0  0  0  0  0
   -0.7500    1.2990    0.0000 C   0  0  0  0  0  0  0  0  0  0  0  0
   -1.5000    2.5981    0.0000 C   0  0  0  0  0  0  0  0  0  0  0  0
   -2.9918    2.7549    0.0000 N   0  0  0  0  0  0  0  0  0  0  0  0
   -3.3037    4.2221    0.0000 N   0  0  0  0  0  0  0  0  0  0  0  0
   -2.0046    4.9721    0.0000 N   0  0  0  0  0  0  0  0  0  0  0  0
   -0.8899    3.9684    0.0000 N   0  0  0  0  0  0  0  0  0  0  0  0
    0.5773    4.2803    0.0000 C   0  0  0  0  0  0  0  0  0  0  0  0
    1.5810    3.1655    0.0000 C   0  0  0  0  0  0  0  0  0  0  0  0
    3.0482    3.4774    0.0000 C   0  0  0  0  0  0  0  0  0  0  0  0
    3.5118    4.9040    0.0000 C   0  0  0  0  0  0  0  0  0  0  0  0
    4.9790    5.2159    0.0000 C   0  0  0  0  0  0  0  0  0  0  0  0
    5.9827    4.1011    0.0000 C   0  0  0  0  0  0  0  0  0  0  0  0
    7.4499    4.4130    0.0000 C   0  0  0  0  0  0  0  0  0  0  0  0
    7.9134    5.8396    0.0000 C   0  0  0  0  0  0  0  0  0  0  0  0
    6.9097    6.9543    0.0000 C   0  0  0  0  0  0  0  0  0  0  0  0
    5.4425    6.6424    0.0000 C   0  0  0  0  0  0  0  0  0  0  0  0
    2.5081    6.0187    0.0000 C   0  0  0  0  0  0  0  0  0  0  0  0
    1.0409    5.7068    0.0000 C   0  0  0  0  0  0  0  0  0  0  0  0
    0.0372    6.8216    0.0000 C   0  0  0  0  0  0  0  0  0  0  0  0
   -1.4301    6.5097    0.0000 C   0  0  0  0  0  0  0  0  0  0  0  0
   -2.4338    7.6244    0.0000 C   0  0  0  0  0  0  0  0  0  0  0  0
   -1.9702    9.0510    0.0000 C   0  0  0  0  0  0  0  0  0  0  0  0
   -2.9739   10.1657    0.0000 C   0  0  0  0  0  0  0  0  0  0  0  0
   -4.4412    9.8538    0.0000 C   0  0  0  0  0  0  0  0  0  0  0  0
   -5.4448   10.9686    0.0000 C   0  0  0  0  0  0  0  0  0  0  0  0
   -4.9813   12.3952    0.0000 C   0  0  0  0  0  0  0  0  0  0  0  0
   -3.5141   12.7070    0.0000 C   0  0  0  0  0  0  0  0  0  0  0  0
   -2.5104   11.5923    0.0000 C   0  0  0  0  0  0  0  0  0  0  0  0
   -0.5030    9.3629    0.0000 C   0  0  0  0  0  0  0  0  0  0  0  0
    0.5007    8.2481    0.0000 C   0  0  0  0  0  0  0  0  0  0  0  0
    1.9679    8.5600    0.0000 C   0  0  0  0  0  0  0  0  0  0  0  0
    2.4314    9.9866    0.0000 C   0  0  0  0  0  0  0  0  0  0  0  0
    3.8986   10.2985    0.0000 C   0  0  0  0  0  0  0  0  0  0  0  0
    4.9023    9.1838    0.0000 C   0  0  0  0  0  0  0  0  0  0  0  0
    4.4388    7.7572    0.0000 C   0  0  0  0  0  0  0  0  0  0  0  0
    2.9716    7.4453    0.0000 C   0  0  0  0  0  0  0  0  0  0  0  0
   -1.5000    0.0000    0.0000 C   0  0  0  0  0  0  0  0  0  0  0  0
   -0.7500   -1.2990    0.0000 C   0  0  0  0  0  0  0  0  0  0  0  0
   -1.5000   -2.5981    0.0000 C   0  0  0  0  0  0  0  0  0  0  0  0
   -0.8899   -3.9684    0.0000 C   0  0  0  0  0  0  0  0  0  0  0  0
   -2.0046   -4.9721    0.0000 N   0  0  0  0  0  0  0  0  0  0  0  0
   -3.3037   -4.2221    0.0000 N   0  0  0  0  0  0  0  0  0  0  0  0
   -2.9918   -2.7549    0.0000 N   0  0  0  0  0  0  0  0  0  0  0  0
   -3.9955   -1.6402    0.0000 C   0  0  0  0  0  0  0  0  0  0  0  0
   -3.5320   -0.2136    0.0000 C   0  0  0  0  0  0  0  0  0  0  0  0
   -4.5356    0.9012    0.0000 C   0  0  0  0  0  0  0  0  0  0  0  0
   -6.0029    0.5893    0.0000 C   0  0  0  0  0  0  0  0  0  0  0  0
   -7.0066    1.7040    0.0000 C   0  0  0  0  0  0  0  0  0  0  0  0
   -6.4664   -0.8373    0.0000 C   0  0  0  0  0  0  0  0  0  0  0  0
   -7.9336   -1.1492    0.0000 O   0  0  0  0  0  0  0  0  0  0  0  0
   -5.4627   -1.9520    0.0000 N   0  0  0  0  0  0  0  0  0  0  0  0
    5.4873   -1.7969    0.0000 N   0  0  0  0  0  0  0  0  0  0  0  0
  1  2  1  0
  2  3  2  0
  3  4  1  0
  4  5  2  0
  5  6  1  0
  6  7  2  0
  7  8  1  0
  8  9  2  0
  9 10  1  0
 10 11  1  0
 11 12  2  0
 12 13  1  0
 13 14  2  0
 14 15  1  0
 15 16  2  0
 16 17  1  0
 17 18  2  0
 18 19  1  0
 19 20  1  0
 20 21  2  0
 21 22  1  0
 22 23  2  0
 23 24  1  0
 24 25  2  0
 25 26  1  0
 26 27  2  0
 27 28  1  0
 28 29  2  0
 23 30  1  0
 30 31  2  0
 31 32  1  0
 32 33  2  0
 33 34  1  0
 34 35  2  0
 35 36  1  0
 36 37  2  0
 37 38  1  0
 38 39  2  0
 39 40  1  0
 40 41  2  0
 35 42  1  0
 42 43  2  0
 43 44  1  0
 44 45  2  0
 45 46  1  0
 46 47  2  0
 47 48  1  0
 48 49  2  0
 14 50  1  0
 50 51  2  0
 51 52  1  0
 52 53  2  0
 53 54  1  0
 54 55  2  0
 55 56  1  0
 56 57  1  0
 57 58  2  0
 58 59  1  0
 59 60  2  0
 60 61  1  0
 60 62  1  0
 62 63  2  0
 62 64  1  0
  5 65  1  0
 65  2  1  0
 10  6  1  0
 51 11  1  0
 56 52  1  0
 64 57  1  0
 19 15  1  0
 31 20  1  0
 43 32  1  0
 49 44  1  0
 29 24  1  0
 41 36  1  0
M  END
>  <Title>  (357) 
idAANSgen7

$$$$

     RDKit          2D

 36 41  0  0  0  0  0  0  0  0999 V2000
    3.0000    0.0000    0.0000 C   0  0  0  0  0  0  0  0  0  0  0  0
    1.5000    0.0000    0.0000 C   0  0  0  0  0  0  0  0  0  0  0  0
    0.7500    1.2990    0.0000 C   0  0  0  0  0  0  0  0  0  0  0  0
   -0.7500    1.2990    0.0000 C   0  0  0  0  0  0  0  0  0  0  0  0
   -1.5000    0.0000    0.0000 C   0  0  0  0  0  0  0  0  0  0  0  0
   -3.0000    0.0000    0.0000 C   0  0  0  0  0  0  0  0  0  0  0  0
   -3.8817   -1.2135    0.0000 C   0  0  0  0  0  0  0  0  0  0  0  0
   -5.3083   -0.7500    0.0000 N   0  0  0  0  0  0  0  0  0  0  0  0
   -5.3083    0.7500    0.0000 N   0  0  0  0  0  0  0  0  0  0  0  0
   -3.8817    1.2135    0.0000 N   0  0  0  0  0  0  0  0  0  0  0  0
   -3.4182    2.6401    0.0000 C   0  0  0  0  0  0  0  0  0  0  0  0
   -1.9509    2.9520    0.0000 C   0  0  0  0  0  0  0  0  0  0  0  0
   -1.4874    4.3786    0.0000 C   0  0  0  0  0  0  0  0  0  0  0  0
   -2.4911    5.4933    0.0000 C   0  0  0  0  0  0  0  0  0  0  0  0
   -2.0276    6.9199    0.0000 C   0  0  0  0  0  0  0  0  0  0  0  0
   -2.9093    8.1334    0.0000 N   0  0  0  0  0  0  0  0  0  0  0  0
   -2.0276    9.3469    0.0000 N   0  0  0  0  0  0  0  0  0  0  0  0
   -0.6010    8.8834    0.0000 N   0  0  0  0  0  0  0  0  0  0  0  0
   -0.6010    7.3834    0.0000 N   0  0  0  0  0  0  0  0  0  0  0  0
    0.6125    6.5017    0.0000 C   0  0  0  0  0  0  0  0  0  0  0  0
    0.4557    5.0099    0.0000 C   0  0  0  0  0  0  0  0  0  0  0  0
    1.6693    4.1283    0.0000 C   0  0  0  0  0  0  0  0  0  0  0  0
    3.0396    4.7384    0.0000 C   0  0  0  0  0  0  0  0  0  0  0  0
    4.2531    3.8567    0.0000 C   0  0  0  0  0  0  0  0  0  0  0  0
    4.0963    2.3649    0.0000 C   0  0  0  0  0  0  0  0  0  0  0  0
    5.3098    1.4832    0.0000 C   0  0  0  0  0  0  0  0  0  0  0  0
    6.6802    2.0933    0.0000 C   0  0  0  0  0  0  0  0  0  0  0  0
    6.8370    3.5851    0.0000 C   0  0  0  0  0  0  0  0  0  0  0  0
    5.6234    4.4668    0.0000 C   0  0  0  0  0  0  0  0  0  0  0  0
    3.1964    6.2301    0.0000 C   0  0  0  0  0  0  0  0  0  0  0  0
    1.9829    7.1118    0.0000 C   0  0  0  0  0  0  0  0  0  0  0  0
   -3.9583    5.1814    0.0000 C   0  0  0  0  0  0  0  0  0  0  0  0
   -4.4218    3.7548    0.0000 C   0  0  0  0  0  0  0  0  0  0  0  0
   -0.7500   -1.2990    0.0000 C   0  0  0  0  0  0  0  0  0  0  0  0
   -1.5000   -2.5981    0.0000 O   0  0  0  0  0  0  0  0  0  0  0  0
    0.7500   -1.2990    0.0000 N   0  0  0  0  0  0  0  0  0  0  0  0
  1  2  1  0
  2  3  2  0
  3  4  1  0
  4  5  2  0
  5  6  1  0
  6  7  2  0
  7  8  1  0
  8  9  2  0
  9 10  1  0
 10 11  1  0
 11 12  2  0
 12 13  1  0
 13 14  2  0
 14 15  1  0
 15 16  2  0
 16 17  1  0
 17 18  2  0
 18 19  1  0
 19 20  1  0
 20 21  2  0
 21 22  1  0
 22 23  2  0
 23 24  1  0
 24 25  2  0
 25 26  1  0
 26 27  2  0
 27 28  1  0
 28 29  2  0
 23 30  1  0
 30 31  2  0
 14 32  1  0
 32 33  2  0
  5 34  1  0
 34 35  2  0
 34 36  1  0
 36  2  1  0
 10  6  1  0
 33 11  1  0
 19 15  1  0
 31 20  1  0
 29 24  1  0
M  END
>  <Title>  (358) 
idAANTgen7

$$$$

     RDKit          2D

 26 29  0  0  0  0  0  0  0  0999 V2000
    3.7500    1.2990    0.0000 C   0  0  0  0  0  0  0  0  0  0  0  0
    3.0000    0.0000    0.0000 O   0  0  0  0  0  0  0  0  0  0  0  0
    1.5000    0.0000    0.0000 C   0  0  0  0  0  0  0  0  0  0  0  0
    0.7500    1.2990    0.0000 C   0  0  0  0  0  0  0  0  0  0  0  0
   -0.7500    1.2990    0.0000 C   0  0  0  0  0  0  0  0  0  0  0  0
   -1.5000    0.0000    0.0000 C   0  0  0  0  0  0  0  0  0  0  0  0
   -3.0000    0.0000    0.0000 C   0  0  0  0  0  0  0  0  0  0  0  0
   -3.8817   -1.2135    0.0000 N   0  0  0  0  0  0  0  0  0  0  0  0
   -5.3083   -0.7500    0.0000 N   0  0  0  0  0  0  0  0  0  0  0  0
   -5.3083    0.7500    0.0000 N   0  0  0  0  0  0  0  0  0  0  0  0
   -3.8817    1.2135    0.0000 N   0  0  0  0  0  0  0  0  0  0  0  0
   -3.4182    2.6401    0.0000 C   0  0  0  0  0  0  0  0  0  0  0  0
   -1.9509    2.9520    0.0000 C   0  0  0  0  0  0  0  0  0  0  0  0
   -1.4874    4.3786    0.0000 C   0  0  0  0  0  0  0  0  0  0  0  0
   -2.4911    5.4933    0.0000 C   0  0  0  0  0  0  0  0  0  0  0  0
   -2.0276    6.9199    0.0000 C   0  0  0  0  0  0  0  0  0  0  0  0
   -0.5604    7.2317    0.0000 C   0  0  0  0  0  0  0  0  0  0  0  0
   -0.0968    8.6583    0.0000 C   0  0  0  0  0  0  0  0  0  0  0  0
   -1.1005    9.7730    0.0000 C   0  0  0  0  0  0  0  0  0  0  0  0
   -2.5677    9.4612    0.0000 C   0  0  0  0  0  0  0  0  0  0  0  0
   -3.0313    8.0346    0.0000 C   0  0  0  0  0  0  0  0  0  0  0  0
   -3.9583    5.1814    0.0000 C   0  0  0  0  0  0  0  0  0  0  0  0
   -4.4218    3.7548    0.0000 C   0  0  0  0  0  0  0  0  0  0  0  0
   -0.7500   -1.2990    0.0000 C   0  0  0  0  0  0  0  0  0  0  0  0
   -1.5000   -2.5981    0.0000 O   0  0  0  0  0  0  0  0  0  0  0  0
    0.7500   -1.2990    0.0000 N   0  0  0  0  0  0  0  0  0  0  0  0
  1  2  1  0
  2  3  1  0
  3  4  2  0
  4  5  1  0
  5  6  2  0
  6  7  1  0
  7  8  2  0
  8  9  1  0
  9 10  2  0
 10 11  1  0
 11 12  1  0
 12 13  2  0
 13 14  1  0
 14 15  2  0
 15 16  1  0
 16 17  2  0
 17 18  1  0
 18 19  2  0
 19 20  1  0
 20 21  2  0
 15 22  1  0
 22 23  1  0
  6 24  1  0
 24 25  2  0
 24 26  1  0
 26  3  1  0
 11  7  1  0
 23 12  1  0
 21 16  1  0
M  END
>  <Title>  (359) 
idAANUgen7

$$$$

     RDKit          2D

 12 13  0  0  0  0  0  0  0  0999 V2000
   -3.0000   -5.1962    0.0000 C   0  0  0  0  0  0  0  0  0  0  0  0
   -1.5000   -5.1962    0.0000 O   0  0  0  0  0  0  0  0  0  0  0  0
   -0.7500   -3.8971    0.0000 C   0  0  0  0  0  0  0  0  0  0  0  0
    0.7500   -3.8971    0.0000 C   0  0  0  0  0  0  0  0  0  0  0  0
    1.5000   -2.5981    0.0000 C   0  0  0  0  0  0  0  0  0  0  0  0
    0.7500   -1.2990    0.0000 C   0  0  0  0  0  0  0  0  0  0  0  0
    1.5000    0.0000    0.0000 C   0  0  0  0  0  0  0  0  0  0  0  0
    0.7500    1.2990    0.0000 C   0  0  0  0  0  0  0  0  0  0  0  0
   -0.7500    1.2990    0.0000 C   0  0  0  0  0  0  0  0  0  0  0  0
   -1.5000    0.0000    0.0000 C   0  0  0  0  0  0  0  0  0  0  0  0
   -0.7500   -1.2990    0.0000 C   0  0  0  0  0  0  0  0  0  0  0  0
   -1.5000   -2.5981    0.0000 C   0  0  0  0  0  0  0  0  0  0  0  0
  1  2  1  0
  2  3  1  0
  3  4  2  0
  4  5  1  0
  5  6  2  0
  6  7  1  0
  7  8  2  0
  8  9  1  0
  9 10  2  0
 10 11  1  0
 11 12  2  0
 12  3  1  0
 11  6  1  0
M  END
>  <Title>  (360) 
idAANVgen7

$$$$

     RDKit          2D

 24 26  0  0  0  0  0  0  0  0999 V2000
    3.0000    0.0000    0.0000 C   0  0  0  0  0  0  0  0  0  0  0  0
    1.5000    0.0000    0.0000 C   0  0  0  0  0  0  0  0  0  0  0  0
    0.7500   -1.2990    0.0000 C   0  0  0  0  0  0  0  0  0  0  0  0
   -0.7500   -1.2990    0.0000 C   0  0  0  0  0  0  0  0  0  0  0  0
   -1.5000    0.0000    0.0000 C   0  0  0  0  0  0  0  0  0  0  0  0
   -3.0000    0.0000    0.0000 C   0  0  0  0  0  0  0  0  0  0  0  0
   -3.7500   -1.2990    0.0000 O   0  0  0  0  0  0  0  0  0  0  0  0
   -3.7500    1.2990    0.0000 N   0  0  0  0  0  0  0  0  0  0  0  0
   -5.2500    1.2990    0.0000 C   0  0  0  0  0  0  0  0  0  0  0  0
   -6.1317    0.0855    0.0000 N   0  0  0  0  0  0  0  0  0  0  0  0
   -7.5583    0.5490    0.0000 N   0  0  0  0  0  0  0  0  0  0  0  0
   -7.5583    2.0490    0.0000 N   0  0  0  0  0  0  0  0  0  0  0  0
   -6.1317    2.5126    0.0000 N   0  0  0  0  0  0  0  0  0  0  0  0
   -5.6682    3.9391    0.0000 C   0  0  0  0  0  0  0  0  0  0  0  0
   -4.2009    4.2510    0.0000 C   0  0  0  0  0  0  0  0  0  0  0  0
   -3.7374    5.6776    0.0000 C   0  0  0  0  0  0  0  0  0  0  0  0
   -4.7411    6.7923    0.0000 C   0  0  0  0  0  0  0  0  0  0  0  0
   -4.2776    8.2189    0.0000 C   0  0  0  0  0  0  0  0  0  0  0  0
   -6.2083    6.4805    0.0000 C   0  0  0  0  0  0  0  0  0  0  0  0
   -7.2120    7.5952    0.0000 O   0  0  0  0  0  0  0  0  0  0  0  0
   -6.6718    5.0539    0.0000 N   0  0  0  0  0  0  0  0  0  0  0  0
   -0.7500    1.2990    0.0000 C   0  0  0  0  0  0  0  0  0  0  0  0
   -1.5000    2.5981    0.0000 O   0  0  0  0  0  0  0  0  0  0  0  0
    0.7500    1.2990    0.0000 N   0  0  0  0  0  0  0  0  0  0  0  0
  1  2  1  0
  2  3  2  0
  3  4  1  0
  4  5  2  0
  5  6  1  0
  6  7  2  0
  6  8  1  0
  8  9  1  0
  9 10  2  0
 10 11  1  0
 11 12  2  0
 12 13  1  0
 13 14  1  0
 14 15  2  0
 15 16  1  0
 16 17  2  0
 17 18  1  0
 17 19  1  0
 19 20  2  0
 19 21  1  0
  5 22  1  0
 22 23  2  0
 22 24  1  0
 24  2  1  0
 13  9  1  0
 21 14  1  0
M  END
>  <Title>  (361) 
idAANWgen7

$$$$

     RDKit          2D

 40 45  0  0  0  0  0  0  0  0999 V2000
    3.0000    0.0000    0.0000 C   0  0  0  0  0  0  0  0  0  0  0  0
    1.5000    0.0000    0.0000 C   0  0  0  0  0  0  0  0  0  0  0  0
    0.7500   -1.2990    0.0000 C   0  0  0  0  0  0  0  0  0  0  0  0
   -0.7500   -1.2990    0.0000 C   0  0  0  0  0  0  0  0  0  0  0  0
   -1.5000    0.0000    0.0000 C   0  0  0  0  0  0  0  0  0  0  0  0
   -3.0000    0.0000    0.0000 C   0  0  0  0  0  0  0  0  0  0  0  0
   -3.7500   -1.2990    0.0000 O   0  0  0  0  0  0  0  0  0  0  0  0
   -3.7500    1.2990    0.0000 N   0  0  0  0  0  0  0  0  0  0  0  0
   -5.2500    1.2990    0.0000 C   0  0  0  0  0  0  0  0  0  0  0  0
   -6.1317    0.0855    0.0000 N   0  0  0  0  0  0  0  0  0  0  0  0
   -7.5583    0.5490    0.0000 N   0  0  0  0  0  0  0  0  0  0  0  0
   -7.5583    2.0490    0.0000 N   0  0  0  0  0  0  0  0  0  0  0  0
   -6.1317    2.5126    0.0000 N   0  0  0  0  0  0  0  0  0  0  0  0
   -5.6682    3.9391    0.0000 C   0  0  0  0  0  0  0  0  0  0  0  0
   -4.2009    4.2510    0.0000 C   0  0  0  0  0  0  0  0  0  0  0  0
   -3.7374    5.6776    0.0000 C   0  0  0  0  0  0  0  0  0  0  0  0
   -4.7411    6.7923    0.0000 C   0  0  0  0  0  0  0  0  0  0  0  0
   -4.2776    8.2189    0.0000 C   0  0  0  0  0  0  0  0  0  0  0  0
   -2.8104    8.5308    0.0000 C   0  0  0  0  0  0  0  0  0  0  0  0
   -2.3468    9.9574    0.0000 C   0  0  0  0  0  0  0  0  0  0  0  0
   -3.3505   11.0721    0.0000 C   0  0  0  0  0  0  0  0  0  0  0  0
   -2.8870   12.4987    0.0000 C   0  0  0  0  0  0  0  0  0  0  0  0
   -1.4198   12.8105    0.0000 C   0  0  0  0  0  0  0  0  0  0  0  0
   -0.9563   14.2371    0.0000 C   0  0  0  0  0  0  0  0  0  0  0  0
   -1.9599   15.3518    0.0000 C   0  0  0  0  0  0  0  0  0  0  0  0
   -3.4272   15.0400    0.0000 C   0  0  0  0  0  0  0  0  0  0  0  0
   -3.8907   13.6134    0.0000 C   0  0  0  0  0  0  0  0  0  0  0  0
   -4.8177   10.7602    0.0000 C   0  0  0  0  0  0  0  0  0  0  0  0
   -5.2813    9.3336    0.0000 C   0  0  0  0  0  0  0  0  0  0  0  0
   -6.7485    9.0218    0.0000 C   0  0  0  0  0  0  0  0  0  0  0  0
   -7.7522   10.1365    0.0000 C   0  0  0  0  0  0  0  0  0  0  0  0
   -9.2194    9.8246    0.0000 C   0  0  0  0  0  0  0  0  0  0  0  0
   -9.6829    8.3980    0.0000 C   0  0  0  0  0  0  0  0  0  0  0  0
   -8.6792    7.2833    0.0000 C   0  0  0  0  0  0  0  0  0  0  0  0
   -7.2120    7.5952    0.0000 C   0  0  0  0  0  0  0  0  0  0  0  0
   -6.2083    6.4805    0.0000 C   0  0  0  0  0  0  0  0  0  0  0  0
   -6.6718    5.0539    0.0000 C   0  0  0  0  0  0  0  0  0  0  0  0
   -0.7500    1.2990    0.0000 C   0  0  0  0  0  0  0  0  0  0  0  0
   -1.5000    2.5981    0.0000 O   0  0  0  0  0  0  0  0  0  0  0  0
    0.7500    1.2990    0.0000 N   0  0  0  0  0  0  0  0  0  0  0  0
  1  2  1  0
  2  3  2  0
  3  4  1  0
  4  5  2  0
  5  6  1  0
  6  7  2  0
  6  8  1  0
  8  9  1  0
  9 10  2  0
 10 11  1  0
 11 12  2  0
 12 13  1  0
 13 14  1  0
 14 15  2  0
 15 16  1  0
 16 17  2  0
 17 18  1  0
 18 19  2  0
 19 20  1  0
 20 21  2  0
 21 22  1  0
 22 23  2  0
 23 24  1  0
 24 25  2  0
 25 26  1  0
 26 27  2  0
 21 28  1  0
 28 29  2  0
 29 30  1  0
 30 31  2  0
 31 32  1  0
 32 33  2  0
 33 34  1  0
 34 35  2  0
 17 36  1  0
 36 37  2  0
  5 38  1  0
 38 39  2  0
 38 40  1  0
 40  2  1  0
 13  9  1  0
 37 14  1  0
 29 18  1  0
 35 30  1  0
 27 22  1  0
M  END
>  <Title>  (362) 
idAANXgen7

$$$$

     RDKit          2D

 36 41  0  0  0  0  0  0  0  0999 V2000
    3.0000    0.0000    0.0000 C   0  0  0  0  0  0  0  0  0  0  0  0
    1.5000    0.0000    0.0000 C   0  0  0  0  0  0  0  0  0  0  0  0
    0.7500   -1.2990    0.0000 C   0  0  0  0  0  0  0  0  0  0  0  0
   -0.7500   -1.2990    0.0000 C   0  0  0  0  0  0  0  0  0  0  0  0
   -1.5000    0.0000    0.0000 C   0  0  0  0  0  0  0  0  0  0  0  0
   -3.0000    0.0000    0.0000 C   0  0  0  0  0  0  0  0  0  0  0  0
   -3.7500    1.2990    0.0000 C   0  0  0  0  0  0  0  0  0  0  0  0
   -5.2500    1.2990    0.0000 C   0  0  0  0  0  0  0  0  0  0  0  0
   -6.0000    2.5981    0.0000 C   0  0  0  0  0  0  0  0  0  0  0  0
   -7.4918    2.7549    0.0000 N   0  0  0  0  0  0  0  0  0  0  0  0
   -7.8037    4.2221    0.0000 N   0  0  0  0  0  0  0  0  0  0  0  0
   -6.5046    4.9721    0.0000 N   0  0  0  0  0  0  0  0  0  0  0  0
   -5.3899    3.9684    0.0000 N   0  0  0  0  0  0  0  0  0  0  0  0
   -3.9227    4.2803    0.0000 C   0  0  0  0  0  0  0  0  0  0  0  0
   -2.9190    3.1655    0.0000 C   0  0  0  0  0  0  0  0  0  0  0  0
   -1.4518    3.4774    0.0000 C   0  0  0  0  0  0  0  0  0  0  0  0
   -0.9882    4.9040    0.0000 C   0  0  0  0  0  0  0  0  0  0  0  0
   -1.9919    6.0187    0.0000 C   0  0  0  0  0  0  0  0  0  0  0  0
   -3.4591    5.7068    0.0000 C   0  0  0  0  0  0  0  0  0  0  0  0
   -6.0000    0.0000    0.0000 C   0  0  0  0  0  0  0  0  0  0  0  0
   -5.2500   -1.2990    0.0000 C   0  0  0  0  0  0  0  0  0  0  0  0
   -3.7500   -1.2990    0.0000 C   0  0  0  0  0  0  0  0  0  0  0  0
   -3.0000   -2.5981    0.0000 N   0  0  0  0  0  0  0  0  0  0  0  0
   -1.5082   -2.7549    0.0000 N   0  0  0  0  0  0  0  0  0  0  0  0
   -1.1963   -4.2221    0.0000 N   0  0  0  0  0  0  0  0  0  0  0  0
   -2.4954   -4.9721    0.0000 N   0  0  0  0  0  0  0  0  0  0  0  0
   -3.6101   -3.9684    0.0000 C   0  0  0  0  0  0  0  0  0  0  0  0
   -5.0773   -4.2803    0.0000 C   0  0  0  0  0  0  0  0  0  0  0  0
   -6.0810   -3.1655    0.0000 C   0  0  0  0  0  0  0  0  0  0  0  0
   -7.5482   -3.4774    0.0000 C   0  0  0  0  0  0  0  0  0  0  0  0
   -8.0118   -4.9040    0.0000 C   0  0  0  0  0  0  0  0  0  0  0  0
   -9.4790   -5.2159    0.0000 C   0  0  0  0  0  0  0  0  0  0  0  0
   -7.0081   -6.0187    0.0000 N   0  0  0  0  0  0  0  0  0  0  0  0
   -5.5409   -5.7068    0.0000 N   0  0  0  0  0  0  0  0  0  0  0  0
   -0.7500    1.2990    0.0000 C   0  0  0  0  0  0  0  0  0  0  0  0
    0.7500    1.2990    0.0000 C   0  0  0  0  0  0  0  0  0  0  0  0
  1  2  1  0
  2  3  2  0
  3  4  1  0
  4  5  2  0
  5  6  1  0
  6  7  2  0
  7  8  1  0
  8  9  1  0
  9 10  2  0
 10 11  1  0
 11 12  2  0
 12 13  1  0
 13 14  1  0
 14 15  2  0
 15 16  1  0
 16 17  2  0
 17 18  1  0
 18 19  2  0
  8 20  2  0
 20 21  1  0
 21 22  2  0
 22 23  1  0
 23 24  1  0
 24 25  2  0
 25 26  1  0
 26 27  2  0
 27 28  1  0
 28 29  2  0
 29 30  1  0
 30 31  2  0
 31 32  1  0
 31 33  1  0
 33 34  2  0
  5 35  1  0
 35 36  2  0
 36  2  1  0
 22  6  1  0
 27 23  1  0
 34 28  1  0
 13  9  1  0
 19 14  1  0
M  END
>  <Title>  (363) 
idAANYgen7

$$$$

     RDKit          2D

 17 18  0  0  0  0  0  0  0  0999 V2000
    6.0663    4.8848    0.0000 C   0  0  0  0  0  0  0  0  0  0  0  0
    4.6805    5.4588    0.0000 O   0  0  0  0  0  0  0  0  0  0  0  0
    3.4905    4.5457    0.0000 C   0  0  0  0  0  0  0  0  0  0  0  0
    3.8787    3.0968    0.0000 C   0  0  0  0  0  0  0  0  0  0  0  0
    3.1287    1.7978    0.0000 C   0  0  0  0  0  0  0  0  0  0  0  0
    1.6798    1.4095    0.0000 C   0  0  0  0  0  0  0  0  0  0  0  0
    2.1929    0.0000    0.0000 C   0  0  0  0  0  0  0  0  0  0  0  0
    1.6798   -1.4095    0.0000 C   0  0  0  0  0  0  0  0  0  0  0  0
    0.3808   -2.1595    0.0000 C   0  0  0  0  0  0  0  0  0  0  0  0
   -1.0964   -1.8991    0.0000 C   0  0  0  0  0  0  0  0  0  0  0  0
   -2.0606   -0.7500    0.0000 C   0  0  0  0  0  0  0  0  0  0  0  0
   -2.0606    0.7500    0.0000 C   0  0  0  0  0  0  0  0  0  0  0  0
   -1.0964    1.8991    0.0000 C   0  0  0  0  0  0  0  0  0  0  0  0
    0.3808    2.1595    0.0000 C   0  0  0  0  0  0  0  0  0  0  0  0
   -0.0074    3.6084    0.0000 O   0  0  0  0  0  0  0  0  0  0  0  0
    0.7426    4.9075    0.0000 C   0  0  0  0  0  0  0  0  0  0  0  0
    2.1914    5.2957    0.0000 C   0  0  0  0  0  0  0  0  0  0  0  0
  1  2  1  0
  2  3  1  0
  3  4  2  0
  4  5  1  0
  5  6  2  0
  6  7  1  0
  7  8  2  0
  8  9  1  0
  9 10  2  0
 10 11  1  0
 11 12  2  0
 12 13  1  0
 13 14  2  0
 14 15  1  0
 15 16  1  0
 16 17  1  0
 17  3  1  0
 14  6  1  0
M  END
>  <Title>  (364) 
idAANZgen7

$$$$

     RDKit          2D

 46 53  0  0  0  0  0  0  0  0999 V2000
   -6.5218   -1.6317    0.0000 C   0  0  0  0  0  0  0  0  0  0  0  0
   -5.3083   -0.7500    0.0000 C   0  0  0  0  0  0  0  0  0  0  0  0
   -5.3083    0.7500    0.0000 C   0  0  0  0  0  0  0  0  0  0  0  0
   -3.8817    1.2135    0.0000 C   0  0  0  0  0  0  0  0  0  0  0  0
   -3.0000    0.0000    0.0000 C   0  0  0  0  0  0  0  0  0  0  0  0
   -1.5000    0.0000    0.0000 N   0  0  0  0  0  0  0  0  0  0  0  0
   -0.7500    1.2990    0.0000 N   0  0  0  0  0  0  0  0  0  0  0  0
    0.7500    1.2990    0.0000 N   0  0  0  0  0  0  0  0  0  0  0  0
    1.5000   -0.0000    0.0000 N   0  0  0  0  0  0  0  0  0  0  0  0
    0.7500   -1.2990    0.0000 N   0  0  0  0  0  0  0  0  0  0  0  0
   -0.7500   -1.2990    0.0000 N   0  0  0  0  0  0  0  0  0  0  0  0
   -1.5000   -2.5981    0.0000 C   0  0  0  0  0  0  0  0  0  0  0  0
   -3.0000   -2.5981    0.0000 C   0  0  0  0  0  0  0  0  0  0  0  0
   -3.7500   -3.8971    0.0000 C   0  0  0  0  0  0  0  0  0  0  0  0
   -3.0000   -5.1962    0.0000 C   0  0  0  0  0  0  0  0  0  0  0  0
   -3.7500   -6.4952    0.0000 C   0  0  0  0  0  0  0  0  0  0  0  0
   -3.1399   -7.8655    0.0000 N   0  0  0  0  0  0  0  0  0  0  0  0
   -4.2546   -8.8692    0.0000 N   0  0  0  0  0  0  0  0  0  0  0  0
   -5.5537   -8.1192    0.0000 N   0  0  0  0  0  0  0  0  0  0  0  0
   -5.2418   -6.6520    0.0000 N   0  0  0  0  0  0  0  0  0  0  0  0
   -6.2455   -5.5373    0.0000 C   0  0  0  0  0  0  0  0  0  0  0  0
   -5.7820   -4.1107    0.0000 C   0  0  0  0  0  0  0  0  0  0  0  0
   -6.7856   -2.9960    0.0000 C   0  0  0  0  0  0  0  0  0  0  0  0
   -8.2529   -3.3078    0.0000 C   0  0  0  0  0  0  0  0  0  0  0  0
   -8.7164   -4.7344    0.0000 C   0  0  0  0  0  0  0  0  0  0  0  0
   -7.7127   -5.8491    0.0000 C   0  0  0  0  0  0  0  0  0  0  0  0
   -1.5000   -5.1962    0.0000 C   0  0  0  0  0  0  0  0  0  0  0  0
   -0.7500   -3.8971    0.0000 C   0  0  0  0  0  0  0  0  0  0  0  0
    0.7500   -3.8971    0.0000 C   0  0  0  0  0  0  0  0  0  0  0  0
    1.6317   -2.6836    0.0000 C   0  0  0  0  0  0  0  0  0  0  0  0
    3.0583   -3.1471    0.0000 C   0  0  0  0  0  0  0  0  0  0  0  0
    3.0583   -4.6471    0.0000 C   0  0  0  0  0  0  0  0  0  0  0  0
    4.2718   -5.5288    0.0000 C   0  0  0  0  0  0  0  0  0  0  0  0
    5.6984   -5.0653    0.0000 N   0  0  0  0  0  0  0  0  0  0  0  0
    6.5801   -6.2788    0.0000 N   0  0  0  0  0  0  0  0  0  0  0  0
    5.6984   -7.4923    0.0000 N   0  0  0  0  0  0  0  0  0  0  0  0
    4.2718   -7.0288    0.0000 N   0  0  0  0  0  0  0  0  0  0  0  0
    3.0583   -7.9105    0.0000 C   0  0  0  0  0  0  0  0  0  0  0  0
    1.6879   -7.3004    0.0000 C   0  0  0  0  0  0  0  0  0  0  0  0
    0.4744   -8.1820    0.0000 C   0  0  0  0  0  0  0  0  0  0  0  0
    0.6312   -9.6738    0.0000 C   0  0  0  0  0  0  0  0  0  0  0  0
    2.0015  -10.2839    0.0000 C   0  0  0  0  0  0  0  0  0  0  0  0
    3.2151   -9.4023    0.0000 C   0  0  0  0  0  0  0  0  0  0  0  0
    1.6317   -5.1106    0.0000 C   0  0  0  0  0  0  0  0  0  0  0  0
    1.1682   -6.5372    0.0000 O   0  0  0  0  0  0  0  0  0  0  0  0
   -3.8817   -1.2135    0.0000 C   0  0  0  0  0  0  0  0  0  0  0  0
  1  2  1  0
  2  3  2  0
  3  4  1  0
  4  5  2  0
  5  6  1  0
  6  7  1  0
  7  8  2  0
  8  9  1  0
  9 10  2  0
 10 11  1  0
 11 12  1  0
 12 13  2  0
 13 14  1  0
 14 15  2  0
 15 16  1  0
 16 17  2  0
 17 18  1  0
 18 19  2  0
 19 20  1  0
 20 21  1  0
 21 22  2  0
 22 23  1  0
 23 24  2  0
 24 25  1  0
 25 26  2  0
 15 27  1  0
 27 28  2  0
 28 29  1  0
 29 30  2  0
 30 31  1  0
 31 32  2  0
 32 33  1  0
 33 34  2  0
 34 35  1  0
 35 36  2  0
 36 37  1  0
 37 38  1  0
 38 39  2  0
 39 40  1  0
 40 41  2  0
 41 42  1  0
 42 43  2  0
 32 44  1  0
 44 45  2  0
  5 46  1  0
 46  2  1  0
 11  6  1  0
 28 12  1  0
 44 29  1  0
 20 16  1  0
 26 21  1  0
 37 33  1  0
 43 38  1  0
M  END
>  <Title>  (365) 
idAAOAgen7

$$$$

     RDKit          2D

 22 24  0  0  0  0  0  0  0  0999 V2000
    3.7500   -1.2990    0.0000 C   0  0  0  0  0  0  0  0  0  0  0  0
    3.0000    0.0000    0.0000 O   0  0  0  0  0  0  0  0  0  0  0  0
    1.5000    0.0000    0.0000 C   0  0  0  0  0  0  0  0  0  0  0  0
    0.7500   -1.2990    0.0000 C   0  0  0  0  0  0  0  0  0  0  0  0
   -0.7500   -1.2990    0.0000 C   0  0  0  0  0  0  0  0  0  0  0  0
   -1.5000    0.0000    0.0000 C   0  0  0  0  0  0  0  0  0  0  0  0
   -3.0000    0.0000    0.0000 N   0  0  0  0  0  0  0  0  0  0  0  0
   -3.8817   -1.2135    0.0000 C   0  0  0  0  0  0  0  0  0  0  0  0
   -5.3083   -0.7500    0.0000 C   0  0  0  0  0  0  0  0  0  0  0  0
   -5.3083    0.7500    0.0000 C   0  0  0  0  0  0  0  0  0  0  0  0
   -6.5218    1.6317    0.0000 C   0  0  0  0  0  0  0  0  0  0  0  0
   -7.8921    1.0216    0.0000 O   0  0  0  0  0  0  0  0  0  0  0  0
   -6.3650    3.1235    0.0000 N   0  0  0  0  0  0  0  0  0  0  0  0
   -7.5785    4.0051    0.0000 C   0  0  0  0  0  0  0  0  0  0  0  0
   -7.4217    5.4969    0.0000 C   0  0  0  0  0  0  0  0  0  0  0  0
   -8.6353    6.3786    0.0000 C   0  0  0  0  0  0  0  0  0  0  0  0
  -10.0056    5.7685    0.0000 C   0  0  0  0  0  0  0  0  0  0  0  0
  -10.1624    4.2767    0.0000 C   0  0  0  0  0  0  0  0  0  0  0  0
   -8.9488    3.3950    0.0000 C   0  0  0  0  0  0  0  0  0  0  0  0
   -3.8817    1.2135    0.0000 C   0  0  0  0  0  0  0  0  0  0  0  0
   -0.7500    1.2990    0.0000 C   0  0  0  0  0  0  0  0  0  0  0  0
    0.7500    1.2990    0.0000 C   0  0  0  0  0  0  0  0  0  0  0  0
  1  2  1  0
  2  3  1  0
  3  4  2  0
  4  5  1  0
  5  6  2  0
  6  7  1  0
  7  8  1  0
  8  9  2  0
  9 10  1  0
 10 11  1  0
 11 12  2  0
 11 13  1  0
 13 14  1  0
 14 15  2  0
 15 16  1  0
 16 17  2  0
 17 18  1  0
 18 19  2  0
 10 20  2  0
  6 21  1  0
 21 22  2  0
 22  3  1  0
 20  7  1  0
 19 14  1  0
M  END
>  <Title>  (366) 
idAAOBgen7

$$$$

     RDKit          2D

 29 32  0  0  0  0  0  0  0  0999 V2000
    3.0000    0.0000    0.0000 C   0  0  0  0  0  0  0  0  0  0  0  0
    1.5000    0.0000    0.0000 C   0  0  0  0  0  0  0  0  0  0  0  0
    0.7500    1.2990    0.0000 C   0  0  0  0  0  0  0  0  0  0  0  0
   -0.7500    1.2990    0.0000 C   0  0  0  0  0  0  0  0  0  0  0  0
   -1.5000    0.0000    0.0000 C   0  0  0  0  0  0  0  0  0  0  0  0
   -3.0000    0.0000    0.0000 C   0  0  0  0  0  0  0  0  0  0  0  0
   -3.7500   -1.2990    0.0000 O   0  0  0  0  0  0  0  0  0  0  0  0
   -3.7500    1.2990    0.0000 N   0  0  0  0  0  0  0  0  0  0  0  0
   -5.2500    1.2990    0.0000 C   0  0  0  0  0  0  0  0  0  0  0  0
   -6.1317    0.0855    0.0000 N   0  0  0  0  0  0  0  0  0  0  0  0
   -7.5583    0.5490    0.0000 N   0  0  0  0  0  0  0  0  0  0  0  0
   -7.5583    2.0490    0.0000 N   0  0  0  0  0  0  0  0  0  0  0  0
   -6.1317    2.5126    0.0000 N   0  0  0  0  0  0  0  0  0  0  0  0
   -5.6682    3.9391    0.0000 C   0  0  0  0  0  0  0  0  0  0  0  0
   -4.2416    4.4027    0.0000 C   0  0  0  0  0  0  0  0  0  0  0  0
   -4.2416    5.9027    0.0000 N   0  0  0  0  0  0  0  0  0  0  0  0
   -5.6682    6.3662    0.0000 N   0  0  0  0  0  0  0  0  0  0  0  0
   -6.5498    5.1527    0.0000 N   0  0  0  0  0  0  0  0  0  0  0  0
   -8.0498    5.1527    0.0000 C   0  0  0  0  0  0  0  0  0  0  0  0
   -8.7998    3.8536    0.0000 C   0  0  0  0  0  0  0  0  0  0  0  0
  -10.2998    3.8536    0.0000 C   0  0  0  0  0  0  0  0  0  0  0  0
  -11.0498    5.1527    0.0000 C   0  0  0  0  0  0  0  0  0  0  0  0
  -12.5498    5.1527    0.0000 C   0  0  0  0  0  0  0  0  0  0  0  0
  -10.2998    6.4517    0.0000 C   0  0  0  0  0  0  0  0  0  0  0  0
  -11.0498    7.7508    0.0000 O   0  0  0  0  0  0  0  0  0  0  0  0
   -8.7998    6.4517    0.0000 N   0  0  0  0  0  0  0  0  0  0  0  0
   -0.7500   -1.2990    0.0000 C   0  0  0  0  0  0  0  0  0  0  0  0
   -1.5000   -2.5981    0.0000 O   0  0  0  0  0  0  0  0  0  0  0  0
    0.7500   -1.2990    0.0000 N   0  0  0  0  0  0  0  0  0  0  0  0
  1  2  1  0
  2  3  2  0
  3  4  1  0
  4  5  2  0
  5  6  1  0
  6  7  2  0
  6  8  1  0
  8  9  1  0
  9 10  2  0
 10 11  1  0
 11 12  2  0
 12 13  1  0
 13 14  1  0
 14 15  2  0
 15 16  1  0
 16 17  2  0
 17 18  1  0
 18 19  1  0
 19 20  2  0
 20 21  1  0
 21 22  2  0
 22 23  1  0
 22 24  1  0
 24 25  2  0
 24 26  1  0
  5 27  1  0
 27 28  2  0
 27 29  1  0
 29  2  1  0
 13  9  1  0
 18 14  1  0
 26 19  1  0
M  END
>  <Title>  (367) 
idAAOCgen7

$$$$

     RDKit          2D

 13 13  0  0  0  0  0  0  0  0999 V2000
    3.6929    0.0000    0.0000 C   0  0  0  0  0  0  0  0  0  0  0  0
    2.1929    0.0000    0.0000 C   0  0  0  0  0  0  0  0  0  0  0  0
    1.6798    1.4095    0.0000 C   0  0  0  0  0  0  0  0  0  0  0  0
    0.3808    2.1595    0.0000 C   0  0  0  0  0  0  0  0  0  0  0  0
   -1.0964    1.8991    0.0000 C   0  0  0  0  0  0  0  0  0  0  0  0
   -2.0606    0.7500    0.0000 C   0  0  0  0  0  0  0  0  0  0  0  0
   -2.0606   -0.7500    0.0000 C   0  0  0  0  0  0  0  0  0  0  0  0
   -3.4701   -1.2630    0.0000 O   0  0  0  0  0  0  0  0  0  0  0  0
   -1.0964   -1.8991    0.0000 C   0  0  0  0  0  0  0  0  0  0  0  0
   -1.8464   -3.1981    0.0000 O   0  0  0  0  0  0  0  0  0  0  0  0
    0.3808   -2.1595    0.0000 C   0  0  0  0  0  0  0  0  0  0  0  0
    0.6413   -3.6368    0.0000 O   0  0  0  0  0  0  0  0  0  0  0  0
    1.6798   -1.4095    0.0000 C   0  0  0  0  0  0  0  0  0  0  0  0
  1  2  1  0
  2  3  2  0
  3  4  1  0
  4  5  2  0
  5  6  1  0
  6  7  2  0
  7  8  1  0
  7  9  1  0
  9 10  1  0
  9 11  1  0
 11 12  1  0
 11 13  1  0
 13  2  1  0
M  END
>  <Title>  (368) 
idAAODgen7

$$$$

     RDKit          2D

 27 29  0  0  0  0  0  0  0  0999 V2000
    3.7500   -1.2990    0.0000 C   0  0  0  0  0  0  0  0  0  0  0  0
    3.0000    0.0000    0.0000 O   0  0  0  0  0  0  0  0  0  0  0  0
    1.5000    0.0000    0.0000 C   0  0  0  0  0  0  0  0  0  0  0  0
    0.7500   -1.2990    0.0000 C   0  0  0  0  0  0  0  0  0  0  0  0
   -0.7500   -1.2990    0.0000 C   0  0  0  0  0  0  0  0  0  0  0  0
   -1.5000    0.0000    0.0000 C   0  0  0  0  0  0  0  0  0  0  0  0
   -3.0000    0.0000    0.0000 C   0  0  0  0  0  0  0  0  0  0  0  0
   -3.7500   -1.2990    0.0000 O   0  0  0  0  0  0  0  0  0  0  0  0
   -3.7500    1.2990    0.0000 N   0  0  0  0  0  0  0  0  0  0  0  0
   -5.2500    1.2990    0.0000 C   0  0  0  0  0  0  0  0  0  0  0  0
   -6.1317    0.0855    0.0000 N   0  0  0  0  0  0  0  0  0  0  0  0
   -7.5583    0.5490    0.0000 N   0  0  0  0  0  0  0  0  0  0  0  0
   -7.5583    2.0490    0.0000 N   0  0  0  0  0  0  0  0  0  0  0  0
   -6.1317    2.5126    0.0000 N   0  0  0  0  0  0  0  0  0  0  0  0
   -5.6682    3.9391    0.0000 C   0  0  0  0  0  0  0  0  0  0  0  0
   -4.2009    4.2510    0.0000 C   0  0  0  0  0  0  0  0  0  0  0  0
   -3.7374    5.6776    0.0000 C   0  0  0  0  0  0  0  0  0  0  0  0
   -4.7411    6.7923    0.0000 C   0  0  0  0  0  0  0  0  0  0  0  0
   -4.2776    8.2189    0.0000 C   0  0  0  0  0  0  0  0  0  0  0  0
   -5.2813    9.3336    0.0000 O   0  0  0  0  0  0  0  0  0  0  0  0
   -2.8104    8.5308    0.0000 N   0  0  0  0  0  0  0  0  0  0  0  0
   -2.3468    9.9574    0.0000 O   0  0  0  0  0  0  0  0  0  0  0  0
   -6.2083    6.4805    0.0000 C   0  0  0  0  0  0  0  0  0  0  0  0
   -6.6718    5.0539    0.0000 C   0  0  0  0  0  0  0  0  0  0  0  0
   -0.7500    1.2990    0.0000 C   0  0  0  0  0  0  0  0  0  0  0  0
    0.7500    1.2990    0.0000 C   0  0  0  0  0  0  0  0  0  0  0  0
    1.5000    2.5981    0.0000 C   0  0  0  0  0  0  0  0  0  0  0  0
  1  2  1  0
  2  3  1  0
  3  4  2  0
  4  5  1  0
  5  6  2  0
  6  7  1  0
  7  8  2  0
  7  9  1  0
  9 10  1  0
 10 11  2  0
 11 12  1  0
 12 13  2  0
 13 14  1  0
 14 15  1  0
 15 16  2  0
 16 17  1  0
 17 18  2  0
 18 19  1  0
 19 20  2  0
 19 21  1  0
 21 22  1  0
 18 23  1  0
 23 24  1  0
  6 25  1  0
 25 26  2  0
 26 27  1  0
 26  3  1  0
 14 10  1  0
 24 15  1  0
M  END
>  <Title>  (369) 
idAAOEgen7

$$$$

     RDKit          2D

 13 14  0  0  0  0  0  0  0  0999 V2000
   -0.7942    6.6482    0.0000 C   0  0  0  0  0  0  0  0  0  0  0  0
   -1.7979    5.5335    0.0000 O   0  0  0  0  0  0  0  0  0  0  0  0
   -1.3344    4.1069    0.0000 C   0  0  0  0  0  0  0  0  0  0  0  0
    0.1520    3.9056    0.0000 C   0  0  0  0  0  0  0  0  0  0  0  0
    0.9214    2.6179    0.0000 C   0  0  0  0  0  0  0  0  0  0  0  0
    0.3943    1.2135    0.0000 C   0  0  0  0  0  0  0  0  0  0  0  0
    1.2760    0.0000    0.0000 C   0  0  0  0  0  0  0  0  0  0  0  0
    0.3943   -1.2135    0.0000 C   0  0  0  0  0  0  0  0  0  0  0  0
   -1.0323   -0.7500    0.0000 C   0  0  0  0  0  0  0  0  0  0  0  0
   -1.0323    0.7500    0.0000 C   0  0  0  0  0  0  0  0  0  0  0  0
   -2.2841    1.5763    0.0000 C   0  0  0  0  0  0  0  0  0  0  0  0
   -2.4186    3.0703    0.0000 C   0  0  0  0  0  0  0  0  0  0  0  0
   -3.8230    3.5974    0.0000 C   0  0  0  0  0  0  0  0  0  0  0  0
  1  2  1  0
  2  3  1  0
  3  4  2  0
  4  5  1  0
  5  6  2  0
  6  7  1  0
  7  8  2  0
  8  9  1  0
  9 10  2  0
 10 11  1  0
 11 12  2  0
 12 13  1  0
 12  3  1  0
 10  6  1  0
M  END
>  <Title>  (370) 
idAAOFgen7

$$$$

     RDKit          2D

 26 28  0  0  0  0  0  0  0  0999 V2000
    3.0000    0.0000    0.0000 C   0  0  0  0  0  0  0  0  0  0  0  0
    1.5000    0.0000    0.0000 C   0  0  0  0  0  0  0  0  0  0  0  0
    0.7500   -1.2990    0.0000 C   0  0  0  0  0  0  0  0  0  0  0  0
   -0.7500   -1.2990    0.0000 C   0  0  0  0  0  0  0  0  0  0  0  0
   -1.5000    0.0000    0.0000 C   0  0  0  0  0  0  0  0  0  0  0  0
   -3.0000    0.0000    0.0000 C   0  0  0  0  0  0  0  0  0  0  0  0
   -3.7500   -1.2990    0.0000 O   0  0  0  0  0  0  0  0  0  0  0  0
   -3.7500    1.2990    0.0000 N   0  0  0  0  0  0  0  0  0  0  0  0
   -5.2500    1.2990    0.0000 C   0  0  0  0  0  0  0  0  0  0  0  0
   -6.1317    0.0855    0.0000 N   0  0  0  0  0  0  0  0  0  0  0  0
   -7.5583    0.5490    0.0000 C   0  0  0  0  0  0  0  0  0  0  0  0
   -8.7718   -0.3326    0.0000 N   0  0  0  0  0  0  0  0  0  0  0  0
  -10.1421    0.2775    0.0000 C   0  0  0  0  0  0  0  0  0  0  0  0
  -10.2989    1.7692    0.0000 O   0  0  0  0  0  0  0  0  0  0  0  0
  -11.3556   -0.6042    0.0000 C   0  0  0  0  0  0  0  0  0  0  0  0
  -12.7260    0.0059    0.0000 C   0  0  0  0  0  0  0  0  0  0  0  0
  -13.9395   -0.8758    0.0000 C   0  0  0  0  0  0  0  0  0  0  0  0
  -13.7827   -2.3676    0.0000 C   0  0  0  0  0  0  0  0  0  0  0  0
  -12.4124   -2.9777    0.0000 C   0  0  0  0  0  0  0  0  0  0  0  0
  -11.1988   -2.0960    0.0000 C   0  0  0  0  0  0  0  0  0  0  0  0
   -7.5583    2.0490    0.0000 C   0  0  0  0  0  0  0  0  0  0  0  0
   -6.1317    2.5126    0.0000 C   0  0  0  0  0  0  0  0  0  0  0  0
   -5.6682    3.9391    0.0000 O   0  0  0  0  0  0  0  0  0  0  0  0
   -0.7500    1.2990    0.0000 C   0  0  0  0  0  0  0  0  0  0  0  0
   -1.5000    2.5981    0.0000 O   0  0  0  0  0  0  0  0  0  0  0  0
    0.7500    1.2990    0.0000 N   0  0  0  0  0  0  0  0  0  0  0  0
  1  2  1  0
  2  3  2  0
  3  4  1  0
  4  5  2  0
  5  6  1  0
  6  7  2  0
  6  8  1  0
  8  9  1  0
  9 10  2  0
 10 11  1  0
 11 12  1  0
 12 13  1  0
 13 14  2  0
 13 15  1  0
 15 16  2  0
 16 17  1  0
 17 18  2  0
 18 19  1  0
 19 20  2  0
 11 21  2  0
 21 22  1  0
 22 23  2  0
  5 24  1  0
 24 25  2  0
 24 26  1  0
 26  2  1  0
 22  9  1  0
 20 15  1  0
M  END
>  <Title>  (371) 
idAAOGgen7

$$$$

     RDKit          2D

 29 32  0  0  0  0  0  0  0  0999 V2000
    3.0000    0.0000    0.0000 C   0  0  0  0  0  0  0  0  0  0  0  0
    1.5000    0.0000    0.0000 C   0  0  0  0  0  0  0  0  0  0  0  0
    0.7500   -1.2990    0.0000 C   0  0  0  0  0  0  0  0  0  0  0  0
   -0.7500   -1.2990    0.0000 C   0  0  0  0  0  0  0  0  0  0  0  0
   -1.5000    0.0000    0.0000 C   0  0  0  0  0  0  0  0  0  0  0  0
   -3.0000    0.0000    0.0000 N   0  0  0  0  0  0  0  0  0  0  0  0
   -3.7500    1.2990    0.0000 N   0  0  0  0  0  0  0  0  0  0  0  0
   -5.2500    1.2990    0.0000 N   0  0  0  0  0  0  0  0  0  0  0  0
   -6.0000    0.0000    0.0000 N   0  0  0  0  0  0  0  0  0  0  0  0
   -5.2500   -1.2990    0.0000 N   0  0  0  0  0  0  0  0  0  0  0  0
   -3.7500   -1.2990    0.0000 N   0  0  0  0  0  0  0  0  0  0  0  0
   -3.0000   -2.5981    0.0000 C   0  0  0  0  0  0  0  0  0  0  0  0
   -1.5082   -2.7549    0.0000 C   0  0  0  0  0  0  0  0  0  0  0  0
   -1.1963   -4.2221    0.0000 C   0  0  0  0  0  0  0  0  0  0  0  0
   -2.4954   -4.9721    0.0000 C   0  0  0  0  0  0  0  0  0  0  0  0
   -2.6522   -6.4639    0.0000 C   0  0  0  0  0  0  0  0  0  0  0  0
   -1.4387   -7.3456    0.0000 O   0  0  0  0  0  0  0  0  0  0  0  0
   -4.0225   -7.0740    0.0000 N   0  0  0  0  0  0  0  0  0  0  0  0
   -4.1793   -8.5658    0.0000 C   0  0  0  0  0  0  0  0  0  0  0  0
   -5.5496   -9.1759    0.0000 C   0  0  0  0  0  0  0  0  0  0  0  0
   -5.7064  -10.6676    0.0000 C   0  0  0  0  0  0  0  0  0  0  0  0
   -4.4929  -11.5493    0.0000 C   0  0  0  0  0  0  0  0  0  0  0  0
   -3.1226  -10.9392    0.0000 C   0  0  0  0  0  0  0  0  0  0  0  0
   -2.9658   -9.4474    0.0000 C   0  0  0  0  0  0  0  0  0  0  0  0
   -3.6101   -3.9684    0.0000 C   0  0  0  0  0  0  0  0  0  0  0  0
   -5.0773   -4.2803    0.0000 O   0  0  0  0  0  0  0  0  0  0  0  0
   -0.7500    1.2990    0.0000 N   0  0  0  0  0  0  0  0  0  0  0  0
    0.7500    1.2990    0.0000 C   0  0  0  0  0  0  0  0  0  0  0  0
    1.5000    2.5981    0.0000 O   0  0  0  0  0  0  0  0  0  0  0  0
  1  2  1  0
  2  3  2  0
  3  4  1  0
  4  5  2  0
  5  6  1  0
  6  7  1  0
  7  8  2  0
  8  9  1  0
  9 10  2  0
 10 11  1  0
 11 12  1  0
 12 13  2  0
 13 14  1  0
 14 15  2  0
 15 16  1  0
 16 17  2  0
 16 18  1  0
 18 19  1  0
 19 20  2  0
 20 21  1  0
 21 22  2  0
 22 23  1  0
 23 24  2  0
 15 25  1  0
 25 26  2  0
  5 27  1  0
 27 28  1  0
 28 29  2  0
 28  2  1  0
 11  6  1  0
 25 12  1  0
 24 19  1  0
M  END
>  <Title>  (372) 
idAAOHgen7

$$$$

     RDKit          2D

 34 39  0  0  0  0  0  0  0  0999 V2000
   -2.4503   -6.7663    0.0000 C   0  0  0  0  0  0  0  0  0  0  0  0
   -1.0800   -6.1562    0.0000 O   0  0  0  0  0  0  0  0  0  0  0  0
   -0.9232   -4.6644    0.0000 C   0  0  0  0  0  0  0  0  0  0  0  0
    0.3759   -3.9144    0.0000 C   0  0  0  0  0  0  0  0  0  0  0  0
    0.0640   -2.4471    0.0000 C   0  0  0  0  0  0  0  0  0  0  0  0
   -1.4278   -2.2904    0.0000 C   0  0  0  0  0  0  0  0  0  0  0  0
   -2.1778   -0.9913    0.0000 C   0  0  0  0  0  0  0  0  0  0  0  0
   -3.6696   -0.8345    0.0000 N   0  0  0  0  0  0  0  0  0  0  0  0
   -3.9814    0.6327    0.0000 N   0  0  0  0  0  0  0  0  0  0  0  0
   -2.6824    1.3827    0.0000 N   0  0  0  0  0  0  0  0  0  0  0  0
   -1.5677    0.3790    0.0000 N   0  0  0  0  0  0  0  0  0  0  0  0
   -0.1005    0.6909    0.0000 C   0  0  0  0  0  0  0  0  0  0  0  0
    0.5096    2.0612    0.0000 C   0  0  0  0  0  0  0  0  0  0  0  0
    2.0014    1.9044    0.0000 C   0  0  0  0  0  0  0  0  0  0  0  0
    2.3133    0.4372    0.0000 C   0  0  0  0  0  0  0  0  0  0  0  0
    3.6836   -0.1729    0.0000 C   0  0  0  0  0  0  0  0  0  0  0  0
    3.9955   -1.6402    0.0000 N   0  0  0  0  0  0  0  0  0  0  0  0
    5.4873   -1.7969    0.0000 N   0  0  0  0  0  0  0  0  0  0  0  0
    6.0974   -0.4266    0.0000 N   0  0  0  0  0  0  0  0  0  0  0  0
    4.9826    0.5771    0.0000 N   0  0  0  0  0  0  0  0  0  0  0  0
    5.1394    2.0689    0.0000 C   0  0  0  0  0  0  0  0  0  0  0  0
    4.0247    3.0725    0.0000 N   0  0  0  0  0  0  0  0  0  0  0  0
    4.6348    4.4429    0.0000 N   0  0  0  0  0  0  0  0  0  0  0  0
    6.1266    4.2861    0.0000 N   0  0  0  0  0  0  0  0  0  0  0  0
    6.4385    2.8189    0.0000 N   0  0  0  0  0  0  0  0  0  0  0  0
    7.8088    2.2087    0.0000 C   0  0  0  0  0  0  0  0  0  0  0  0
    7.9656    0.7170    0.0000 C   0  0  0  0  0  0  0  0  0  0  0  0
    9.3359    0.1069    0.0000 C   0  0  0  0  0  0  0  0  0  0  0  0
   10.5494    0.9885    0.0000 C   0  0  0  0  0  0  0  0  0  0  0  0
   10.3926    2.4803    0.0000 C   0  0  0  0  0  0  0  0  0  0  0  0
    9.0223    3.0904    0.0000 C   0  0  0  0  0  0  0  0  0  0  0  0
    1.0143   -0.3128    0.0000 C   0  0  0  0  0  0  0  0  0  0  0  0
    0.8575   -1.8046    0.0000 O   0  0  0  0  0  0  0  0  0  0  0  0
   -2.0379   -3.6607    0.0000 N   0  0  0  0  0  0  0  0  0  0  0  0
  1  2  1  0
  2  3  1  0
  3  4  2  0
  4  5  1  0
  5  6  2  0
  6  7  1  0
  7  8  2  0
  8  9  1  0
  9 10  2  0
 10 11  1  0
 11 12  1  0
 12 13  2  0
 13 14  1  0
 14 15  2  0
 15 16  1  0
 16 17  2  0
 17 18  1  0
 18 19  2  0
 19 20  1  0
 20 21  1  0
 21 22  2  0
 22 23  1  0
 23 24  2  0
 24 25  1  0
 25 26  1  0
 26 27  2  0
 27 28  1  0
 28 29  2  0
 29 30  1  0
 30 31  2  0
 15 32  1  0
 32 33  2  0
  6 34  1  0
 34  3  1  0
 11  7  1  0
 32 12  1  0
 20 16  1  0
 25 21  1  0
 31 26  1  0
M  END
>  <Title>  (373) 
idAAOIgen7

$$$$

     RDKit          2D

 26 28  0  0  0  0  0  0  0  0999 V2000
    3.0000   -2.5981    0.0000 C   0  0  0  0  0  0  0  0  0  0  0  0
    1.5000   -2.5981    0.0000 C   0  0  0  0  0  0  0  0  0  0  0  0
    0.7500   -1.2990    0.0000 C   0  0  0  0  0  0  0  0  0  0  0  0
   -0.7500   -1.2990    0.0000 C   0  0  0  0  0  0  0  0  0  0  0  0
   -1.5000   -2.5981    0.0000 C   0  0  0  0  0  0  0  0  0  0  0  0
   -3.0000   -2.5981    0.0000 C   0  0  0  0  0  0  0  0  0  0  0  0
   -3.7500   -3.8971    0.0000 O   0  0  0  0  0  0  0  0  0  0  0  0
   -3.7500   -1.2990    0.0000 N   0  0  0  0  0  0  0  0  0  0  0  0
   -5.2500   -1.2990    0.0000 C   0  0  0  0  0  0  0  0  0  0  0  0
   -6.1317   -2.5126    0.0000 N   0  0  0  0  0  0  0  0  0  0  0  0
   -7.5583   -2.0490    0.0000 N   0  0  0  0  0  0  0  0  0  0  0  0
   -7.5583   -0.5490    0.0000 N   0  0  0  0  0  0  0  0  0  0  0  0
   -6.1317   -0.0855    0.0000 N   0  0  0  0  0  0  0  0  0  0  0  0
   -5.6682    1.3411    0.0000 C   0  0  0  0  0  0  0  0  0  0  0  0
   -6.6718    2.4558    0.0000 C   0  0  0  0  0  0  0  0  0  0  0  0
   -6.2083    3.8824    0.0000 C   0  0  0  0  0  0  0  0  0  0  0  0
   -4.7411    4.1942    0.0000 C   0  0  0  0  0  0  0  0  0  0  0  0
   -4.2776    5.6208    0.0000 C   0  0  0  0  0  0  0  0  0  0  0  0
   -2.8104    5.9327    0.0000 O   0  0  0  0  0  0  0  0  0  0  0  0
   -5.2813    6.7355    0.0000 N   0  0  0  0  0  0  0  0  0  0  0  0
   -4.8177    8.1621    0.0000 O   0  0  0  0  0  0  0  0  0  0  0  0
   -3.7374    3.0795    0.0000 C   0  0  0  0  0  0  0  0  0  0  0  0
   -4.2009    1.6529    0.0000 C   0  0  0  0  0  0  0  0  0  0  0  0
   -0.7500   -3.8971    0.0000 C   0  0  0  0  0  0  0  0  0  0  0  0
   -1.5000   -5.1962    0.0000 C   0  0  0  0  0  0  0  0  0  0  0  0
    0.7500   -3.8971    0.0000 C   0  0  0  0  0  0  0  0  0  0  0  0
  1  2  1  0
  2  3  2  0
  3  4  1  0
  4  5  2  0
  5  6  1  0
  6  7  2  0
  6  8  1  0
  8  9  1  0
  9 10  2  0
 10 11  1  0
 11 12  2  0
 12 13  1  0
 13 14  1  0
 14 15  2  0
 15 16  1  0
 16 17  2  0
 17 18  1  0
 18 19  2  0
 18 20  1  0
 20 21  1  0
 17 22  1  0
 22 23  1  0
  5 24  1  0
 24 25  1  0
 24 26  2  0
 26  2  1  0
 13  9  1  0
 23 14  1  0
M  END
>  <Title>  (374) 
idAAOJgen7

$$$$

     RDKit          2D

 19 21  0  0  0  0  0  0  0  0999 V2000
   -1.5000    2.5981    0.0000 N   0  0  0  0  0  0  0  0  0  0  0  0
   -0.7500    1.2990    0.0000 C   0  0  0  0  0  0  0  0  0  0  0  0
   -1.5000    0.0000    0.0000 N   0  0  0  0  0  0  0  0  0  0  0  0
   -0.7500   -1.2990    0.0000 C   0  0  0  0  0  0  0  0  0  0  0  0
   -1.5000   -2.5981    0.0000 O   0  0  0  0  0  0  0  0  0  0  0  0
    0.7500   -1.2990    0.0000 C   0  0  0  0  0  0  0  0  0  0  0  0
    1.5000   -0.0000    0.0000 C   0  0  0  0  0  0  0  0  0  0  0  0
    0.7500    1.2990    0.0000 C   0  0  0  0  0  0  0  0  0  0  0  0
    1.5000    2.5981    0.0000 C   0  0  0  0  0  0  0  0  0  0  0  0
    0.8899    3.9684    0.0000 N   0  0  0  0  0  0  0  0  0  0  0  0
    2.0046    4.9721    0.0000 N   0  0  0  0  0  0  0  0  0  0  0  0
    3.3037    4.2221    0.0000 N   0  0  0  0  0  0  0  0  0  0  0  0
    2.9918    2.7549    0.0000 N   0  0  0  0  0  0  0  0  0  0  0  0
    3.9955    1.6402    0.0000 C   0  0  0  0  0  0  0  0  0  0  0  0
    3.5320    0.2136    0.0000 C   0  0  0  0  0  0  0  0  0  0  0  0
    4.5356   -0.9012    0.0000 C   0  0  0  0  0  0  0  0  0  0  0  0
    6.0029   -0.5893    0.0000 C   0  0  0  0  0  0  0  0  0  0  0  0
    6.4664    0.8373    0.0000 C   0  0  0  0  0  0  0  0  0  0  0  0
    5.4627    1.9520    0.0000 C   0  0  0  0  0  0  0  0  0  0  0  0
  1  2  2  0
  2  3  1  0
  3  4  1  0
  4  5  1  0
  4  6  2  0
  6  7  1  0
  7  8  2  0
  8  9  1  0
  9 10  2  0
 10 11  1  0
 11 12  2  0
 12 13  1  0
 13 14  1  0
 14 15  2  0
 15 16  1  0
 16 17  2  0
 17 18  1  0
 18 19  2  0
  8  2  1  0
 13  9  1  0
 19 14  1  0
M  END
>  <Title>  (375) 
idAAOKgen7

$$$$

     RDKit          2D

 40 44  0  0  0  0  0  0  0  0999 V2000
    3.7500   -1.2990    0.0000 C   0  0  0  0  0  0  0  0  0  0  0  0
    3.0000    0.0000    0.0000 O   0  0  0  0  0  0  0  0  0  0  0  0
    1.5000    0.0000    0.0000 C   0  0  0  0  0  0  0  0  0  0  0  0
    0.7500   -1.2990    0.0000 C   0  0  0  0  0  0  0  0  0  0  0  0
   -0.7500   -1.2990    0.0000 C   0  0  0  0  0  0  0  0  0  0  0  0
   -1.5000    0.0000    0.0000 C   0  0  0  0  0  0  0  0  0  0  0  0
   -3.0000    0.0000    0.0000 C   0  0  0  0  0  0  0  0  0  0  0  0
   -3.7500    1.2990    0.0000 C   0  0  0  0  0  0  0  0  0  0  0  0
   -5.2500    1.2990    0.0000 C   0  0  0  0  0  0  0  0  0  0  0  0
   -6.1317    0.0855    0.0000 N   0  0  0  0  0  0  0  0  0  0  0  0
   -7.5583    0.5490    0.0000 N   0  0  0  0  0  0  0  0  0  0  0  0
   -7.5583    2.0490    0.0000 N   0  0  0  0  0  0  0  0  0  0  0  0
   -6.1317    2.5126    0.0000 N   0  0  0  0  0  0  0  0  0  0  0  0
   -5.6682    3.9391    0.0000 C   0  0  0  0  0  0  0  0  0  0  0  0
   -4.2009    4.2510    0.0000 C   0  0  0  0  0  0  0  0  0  0  0  0
   -3.1972    3.1363    0.0000 C   0  0  0  0  0  0  0  0  0  0  0  0
   -3.7374    5.6776    0.0000 C   0  0  0  0  0  0  0  0  0  0  0  0
   -4.7411    6.7923    0.0000 C   0  0  0  0  0  0  0  0  0  0  0  0
   -4.2776    8.2189    0.0000 O   0  0  0  0  0  0  0  0  0  0  0  0
   -6.2083    6.4805    0.0000 N   0  0  0  0  0  0  0  0  0  0  0  0
   -6.6718    5.0539    0.0000 C   0  0  0  0  0  0  0  0  0  0  0  0
   -8.1391    4.7420    0.0000 C   0  0  0  0  0  0  0  0  0  0  0  0
   -9.1428    5.8567    0.0000 C   0  0  0  0  0  0  0  0  0  0  0  0
  -10.6100    5.5448    0.0000 C   0  0  0  0  0  0  0  0  0  0  0  0
  -11.0735    4.1183    0.0000 C   0  0  0  0  0  0  0  0  0  0  0  0
  -12.5407    3.8064    0.0000 C   0  0  0  0  0  0  0  0  0  0  0  0
  -13.0043    2.3798    0.0000 O   0  0  0  0  0  0  0  0  0  0  0  0
  -13.5444    4.9211    0.0000 N   0  0  0  0  0  0  0  0  0  0  0  0
  -15.0117    4.6092    0.0000 C   0  0  0  0  0  0  0  0  0  0  0  0
  -16.0153    5.7240    0.0000 C   0  0  0  0  0  0  0  0  0  0  0  0
  -17.4826    5.4121    0.0000 C   0  0  0  0  0  0  0  0  0  0  0  0
  -17.9461    3.9855    0.0000 C   0  0  0  0  0  0  0  0  0  0  0  0
  -16.9424    2.8708    0.0000 C   0  0  0  0  0  0  0  0  0  0  0  0
  -15.4752    3.1827    0.0000 C   0  0  0  0  0  0  0  0  0  0  0  0
  -10.0698    3.0035    0.0000 C   0  0  0  0  0  0  0  0  0  0  0  0
  -10.5333    1.5770    0.0000 O   0  0  0  0  0  0  0  0  0  0  0  0
   -8.6026    3.3154    0.0000 N   0  0  0  0  0  0  0  0  0  0  0  0
   -0.7500    1.2990    0.0000 N   0  0  0  0  0  0  0  0  0  0  0  0
    0.7500    1.2990    0.0000 C   0  0  0  0  0  0  0  0  0  0  0  0
    1.5000    2.5981    0.0000 O   0  0  0  0  0  0  0  0  0  0  0  0
  1  2  1  0
  2  3  1  0
  3  4  2  0
  4  5  1  0
  5  6  2  0
  6  7  1  0
  7  8  1  0
  8  9  1  0
  9 10  2  0
 10 11  1  0
 11 12  2  0
 12 13  1  0
 13 14  1  0
 14 15  2  0
 15 16  1  0
 15 17  1  0
 17 18  2  0
 18 19  1  0
 18 20  1  0
 20 21  2  0
 21 22  1  0
 22 23  2  0
 23 24  1  0
 24 25  2  0
 25 26  1  0
 26 27  2  0
 26 28  1  0
 28 29  1  0
 29 30  2  0
 30 31  1  0
 31 32  2  0
 32 33  1  0
 33 34  2  0
 25 35  1  0
 35 36  2  0
 35 37  1  0
  6 38  1  0
 38 39  1  0
 39 40  2  0
 39  3  1  0
 13  9  1  0
 21 14  1  0
 37 22  1  0
 34 29  1  0
M  END
>  <Title>  (376) 
idAAOLgen7

$$$$

     RDKit          2D

 22 23  0  0  0  0  0  0  0  0999 V2000
    8.0968    4.2770    0.0000 C   0  0  0  0  0  0  0  0  0  0  0  0
    6.7265    4.8871    0.0000 O   0  0  0  0  0  0  0  0  0  0  0  0
    5.5130    4.0054    0.0000 C   0  0  0  0  0  0  0  0  0  0  0  0
    5.7808    2.5295    0.0000 C   0  0  0  0  0  0  0  0  0  0  0  0
    4.7939    1.3999    0.0000 C   0  0  0  0  0  0  0  0  0  0  0  0
    3.2954    1.4672    0.0000 C   0  0  0  0  0  0  0  0  0  0  0  0
    3.6073    0.0000    0.0000 C   0  0  0  0  0  0  0  0  0  0  0  0
    3.2954   -1.4672    0.0000 C   0  0  0  0  0  0  0  0  0  0  0  0
    2.4138   -2.6807    0.0000 C   0  0  0  0  0  0  0  0  0  0  0  0
    1.1147   -3.4307    0.0000 C   0  0  0  0  0  0  0  0  0  0  0  0
   -0.3771   -3.5875    0.0000 C   0  0  0  0  0  0  0  0  0  0  0  0
   -1.8037   -3.1240    0.0000 C   0  0  0  0  0  0  0  0  0  0  0  0
   -2.9184   -2.1203    0.0000 C   0  0  0  0  0  0  0  0  0  0  0  0
   -3.5285   -0.7500    0.0000 C   0  0  0  0  0  0  0  0  0  0  0  0
   -3.5285    0.7500    0.0000 C   0  0  0  0  0  0  0  0  0  0  0  0
   -2.9184    2.1203    0.0000 C   0  0  0  0  0  0  0  0  0  0  0  0
   -1.8037    3.1240    0.0000 C   0  0  0  0  0  0  0  0  0  0  0  0
   -0.3771    3.5875    0.0000 C   0  0  0  0  0  0  0  0  0  0  0  0
    1.1147    3.4307    0.0000 C   0  0  0  0  0  0  0  0  0  0  0  0
    2.4138    2.6807    0.0000 C   0  0  0  0  0  0  0  0  0  0  0  0
    2.8128    4.1267    0.0000 C   0  0  0  0  0  0  0  0  0  0  0  0
    4.1921    4.7162    0.0000 C   0  0  0  0  0  0  0  0  0  0  0  0
  1  2  1  0
  2  3  1  0
  3  4  2  0
  4  5  1  0
  5  6  2  0
  6  7  1  0
  7  8  2  0
  8  9  1  0
  9 10  2  0
 10 11  1  0
 11 12  2  0
 12 13  1  0
 13 14  2  0
 14 15  1  0
 15 16  2  0
 16 17  1  0
 17 18  2  0
 18 19  1  0
 19 20  2  0
 20 21  1  0
 21 22  2  0
 22  3  1  0
 20  6  1  0
M  END
>  <Title>  (377) 
idAAOMgen7

$$$$

     RDKit          2D

 10 10  0  0  0  0  0  0  0  0999 V2000
    4.9598   -0.0000    0.0000 N   0  0  0  0  0  0  0  0  0  0  0  0
    3.4598   -0.0000    0.0000 C   0  0  0  0  0  0  0  0  0  0  0  0
    1.9598    0.0000    0.0000 C   0  0  0  0  0  0  0  0  0  0  0  0
    1.3858   -1.3858    0.0000 C   0  0  0  0  0  0  0  0  0  0  0  0
   -0.0000   -1.9598    0.0000 C   0  0  0  0  0  0  0  0  0  0  0  0
   -1.3858   -1.3858    0.0000 C   0  0  0  0  0  0  0  0  0  0  0  0
   -1.9598    0.0000    0.0000 C   0  0  0  0  0  0  0  0  0  0  0  0
   -1.3858    1.3858    0.0000 C   0  0  0  0  0  0  0  0  0  0  0  0
    0.0000    1.9598    0.0000 C   0  0  0  0  0  0  0  0  0  0  0  0
    1.3858    1.3858    0.0000 C   0  0  0  0  0  0  0  0  0  0  0  0
  1  2  3  0
  2  3  1  0
  3  4  1  0
  4  5  1  0
  5  6  1  0
  6  7  1  0
  7  8  1  0
  8  9  1  0
  9 10  1  0
 10  3  1  0
M  END
>  <Title>  (378) 
idAAONgen7

$$$$

     RDKit          2D

 23 25  0  0  0  0  0  0  0  0999 V2000
    2.8449    6.6264    0.0000 C   0  0  0  0  0  0  0  0  0  0  0  0
    1.4115    6.1843    0.0000 O   0  0  0  0  0  0  0  0  0  0  0  0
    1.0777    4.7219    0.0000 C   0  0  0  0  0  0  0  0  0  0  0  0
    2.2505    3.7867    0.0000 C   0  0  0  0  0  0  0  0  0  0  0  0
    2.2505    2.2867    0.0000 C   0  0  0  0  0  0  0  0  0  0  0  0
    1.0777    1.3515    0.0000 C   0  0  0  0  0  0  0  0  0  0  0  0
    1.7286    0.0000    0.0000 C   0  0  0  0  0  0  0  0  0  0  0  0
    1.0777   -1.3515    0.0000 C   0  0  0  0  0  0  0  0  0  0  0  0
   -0.3846   -1.6852    0.0000 C   0  0  0  0  0  0  0  0  0  0  0  0
   -1.5574   -0.7500    0.0000 C   0  0  0  0  0  0  0  0  0  0  0  0
   -2.9088   -1.4008    0.0000 C   0  0  0  0  0  0  0  0  0  0  0  0
   -3.0209   -2.8966    0.0000 O   0  0  0  0  0  0  0  0  0  0  0  0
   -4.1482   -0.5558    0.0000 N   0  0  0  0  0  0  0  0  0  0  0  0
   -4.0361    0.9400    0.0000 C   0  0  0  0  0  0  0  0  0  0  0  0
   -5.2755    1.7849    0.0000 C   0  0  0  0  0  0  0  0  0  0  0  0
   -6.6269    1.1341    0.0000 C   0  0  0  0  0  0  0  0  0  0  0  0
   -6.7390   -0.3617    0.0000 C   0  0  0  0  0  0  0  0  0  0  0  0
   -5.4997   -1.2067    0.0000 C   0  0  0  0  0  0  0  0  0  0  0  0
   -1.5574    0.7500    0.0000 C   0  0  0  0  0  0  0  0  0  0  0  0
   -0.3846    1.6852    0.0000 C   0  0  0  0  0  0  0  0  0  0  0  0
   -1.0355    3.0367    0.0000 C   0  0  0  0  0  0  0  0  0  0  0  0
   -0.3846    4.3881    0.0000 C   0  0  0  0  0  0  0  0  0  0  0  0
   -1.3199    5.5609    0.0000 C   0  0  0  0  0  0  0  0  0  0  0  0
  1  2  1  0
  2  3  1  0
  3  4  2  0
  4  5  1  0
  5  6  2  0
  6  7  1  0
  7  8  2  0
  8  9  1  0
  9 10  2  0
 10 11  1  0
 11 12  2  0
 11 13  1  0
 13 14  1  0
 14 15  1  0
 15 16  1  0
 16 17  1  0
 17 18  1  0
 10 19  1  0
 19 20  2  0
 20 21  1  0
 21 22  2  0
 22 23  1  0
 22  3  1  0
 20  6  1  0
 18 13  1  0
M  END
>  <Title>  (379) 
idAAOOgen7

$$$$

     RDKit          2D

 44 50  0  0  0  0  0  0  0  0999 V2000
    3.0000    0.0000    0.0000 C   0  0  0  0  0  0  0  0  0  0  0  0
    1.5000    0.0000    0.0000 C   0  0  0  0  0  0  0  0  0  0  0  0
    0.7500   -1.2990    0.0000 C   0  0  0  0  0  0  0  0  0  0  0  0
   -0.7500   -1.2990    0.0000 C   0  0  0  0  0  0  0  0  0  0  0  0
   -1.5000    0.0000    0.0000 C   0  0  0  0  0  0  0  0  0  0  0  0
   -3.0000    0.0000    0.0000 C   0  0  0  0  0  0  0  0  0  0  0  0
   -3.7500    1.2990    0.0000 C   0  0  0  0  0  0  0  0  0  0  0  0
   -5.2500    1.2990    0.0000 C   0  0  0  0  0  0  0  0  0  0  0  0
   -6.0000    0.0000    0.0000 C   0  0  0  0  0  0  0  0  0  0  0  0
   -7.5000    0.0000    0.0000 N   0  0  0  0  0  0  0  0  0  0  0  0
   -8.3817   -1.2135    0.0000 N   0  0  0  0  0  0  0  0  0  0  0  0
   -9.8083   -0.7500    0.0000 N   0  0  0  0  0  0  0  0  0  0  0  0
   -9.8083    0.7500    0.0000 N   0  0  0  0  0  0  0  0  0  0  0  0
   -8.3817    1.2135    0.0000 C   0  0  0  0  0  0  0  0  0  0  0  0
   -7.9182    2.6401    0.0000 C   0  0  0  0  0  0  0  0  0  0  0  0
   -6.4509    2.9520    0.0000 C   0  0  0  0  0  0  0  0  0  0  0  0
   -5.9874    4.3786    0.0000 C   0  0  0  0  0  0  0  0  0  0  0  0
   -6.9911    5.4933    0.0000 C   0  0  0  0  0  0  0  0  0  0  0  0
   -6.5276    6.9199    0.0000 C   0  0  0  0  0  0  0  0  0  0  0  0
   -8.4583    5.1814    0.0000 N   0  0  0  0  0  0  0  0  0  0  0  0
   -8.9218    3.7548    0.0000 C   0  0  0  0  0  0  0  0  0  0  0  0
  -10.3891    3.4430    0.0000 O   0  0  0  0  0  0  0  0  0  0  0  0
   -5.2500   -1.2990    0.0000 N   0  0  0  0  0  0  0  0  0  0  0  0
   -6.0000   -2.5981    0.0000 C   0  0  0  0  0  0  0  0  0  0  0  0
   -7.5000   -2.5981    0.0000 C   0  0  0  0  0  0  0  0  0  0  0  0
   -8.2500   -3.8971    0.0000 C   0  0  0  0  0  0  0  0  0  0  0  0
   -7.5000   -5.1962    0.0000 C   0  0  0  0  0  0  0  0  0  0  0  0
   -8.2500   -6.4952    0.0000 C   0  0  0  0  0  0  0  0  0  0  0  0
   -7.6399   -7.8655    0.0000 N   0  0  0  0  0  0  0  0  0  0  0  0
   -8.7546   -8.8692    0.0000 N   0  0  0  0  0  0  0  0  0  0  0  0
  -10.0537   -8.1192    0.0000 N   0  0  0  0  0  0  0  0  0  0  0  0
   -9.7418   -6.6520    0.0000 N   0  0  0  0  0  0  0  0  0  0  0  0
  -10.7455   -5.5373    0.0000 C   0  0  0  0  0  0  0  0  0  0  0  0
  -10.2820   -4.1107    0.0000 C   0  0  0  0  0  0  0  0  0  0  0  0
  -11.2856   -2.9960    0.0000 C   0  0  0  0  0  0  0  0  0  0  0  0
  -12.7529   -3.3078    0.0000 C   0  0  0  0  0  0  0  0  0  0  0  0
  -13.2164   -4.7344    0.0000 C   0  0  0  0  0  0  0  0  0  0  0  0
  -12.2127   -5.8491    0.0000 C   0  0  0  0  0  0  0  0  0  0  0  0
   -6.0000   -5.1962    0.0000 C   0  0  0  0  0  0  0  0  0  0  0  0
   -5.2500   -3.8971    0.0000 C   0  0  0  0  0  0  0  0  0  0  0  0
   -3.7500   -1.2990    0.0000 C   0  0  0  0  0  0  0  0  0  0  0  0
   -3.0000   -2.5981    0.0000 O   0  0  0  0  0  0  0  0  0  0  0  0
   -0.7500    1.2990    0.0000 C   0  0  0  0  0  0  0  0  0  0  0  0
    0.7500    1.2990    0.0000 C   0  0  0  0  0  0  0  0  0  0  0  0
  1  2  1  0
  2  3  2  0
  3  4  1  0
  4  5  2  0
  5  6  1  0
  6  7  2  0
  7  8  1  0
  8  9  2  0
  9 10  1  0
 10 11  1  0
 11 12  2  0
 12 13  1  0
 13 14  2  0
 14 15  1  0
 15 16  2  0
 16 17  1  0
 17 18  2  0
 18 19  1  0
 18 20  1  0
 20 21  1  0
 21 22  2  0
  9 23  1  0
 23 24  1  0
 24 25  2  0
 25 26  1  0
 26 27  2  0
 27 28  1  0
 28 29  2  0
 29 30  1  0
 30 31  2  0
 31 32  1  0
 32 33  1  0
 33 34  2  0
 34 35  1  0
 35 36  2  0
 36 37  1  0
 37 38  2  0
 27 39  1  0
 39 40  2  0
 23 41  1  0
 41 42  2  0
  5 43  1  0
 43 44  1  0
 44  2  1  0
 41  6  1  0
 14 10  1  0
 21 15  1  0
 40 24  1  0
 32 28  1  0
 38 33  1  0
M  END
>  <Title>  (380) 
idAAOPgen7

$$$$

     RDKit          2D

 14 14  0  0  0  0  0  0  0  0999 V2000
    5.1478   -1.2990    0.0000 C   0  0  0  0  0  0  0  0  0  0  0  0
    4.3978    0.0000    0.0000 O   0  0  0  0  0  0  0  0  0  0  0  0
    2.8978    0.0000    0.0000 C   0  0  0  0  0  0  0  0  0  0  0  0
    2.5095   -1.4489    0.0000 C   0  0  0  0  0  0  0  0  0  0  0  0
    1.4489   -2.5095    0.0000 C   0  0  0  0  0  0  0  0  0  0  0  0
   -0.0000   -2.8978    0.0000 C   0  0  0  0  0  0  0  0  0  0  0  0
   -1.4489   -2.5095    0.0000 C   0  0  0  0  0  0  0  0  0  0  0  0
   -2.5095   -1.4489    0.0000 C   0  0  0  0  0  0  0  0  0  0  0  0
   -2.8978    0.0000    0.0000 C   0  0  0  0  0  0  0  0  0  0  0  0
   -2.5095    1.4489    0.0000 C   0  0  0  0  0  0  0  0  0  0  0  0
   -1.4489    2.5095    0.0000 C   0  0  0  0  0  0  0  0  0  0  0  0
    0.0000    2.8978    0.0000 C   0  0  0  0  0  0  0  0  0  0  0  0
    1.4489    2.5095    0.0000 C   0  0  0  0  0  0  0  0  0  0  0  0
    2.5095    1.4489    0.0000 C   0  0  0  0  0  0  0  0  0  0  0  0
  1  2  1  0
  2  3  1  0
  3  4  2  0
  4  5  1  0
  5  6  2  0
  6  7  1  0
  7  8  2  0
  8  9  1  0
  9 10  2  0
 10 11  1  0
 11 12  2  0
 12 13  1  0
 13 14  2  0
 14  3  1  0
M  END
>  <Title>  (381) 
idAAOQgen7

$$$$

     RDKit          2D

 26 29  0  0  0  0  0  0  0  0999 V2000
    3.7500   -1.2990    0.0000 C   0  0  0  0  0  0  0  0  0  0  0  0
    3.0000    0.0000    0.0000 O   0  0  0  0  0  0  0  0  0  0  0  0
    1.5000    0.0000    0.0000 C   0  0  0  0  0  0  0  0  0  0  0  0
    0.7500   -1.2990    0.0000 C   0  0  0  0  0  0  0  0  0  0  0  0
   -0.7500   -1.2990    0.0000 C   0  0  0  0  0  0  0  0  0  0  0  0
   -1.5000    0.0000    0.0000 C   0  0  0  0  0  0  0  0  0  0  0  0
   -3.0000    0.0000    0.0000 C   0  0  0  0  0  0  0  0  0  0  0  0
   -3.8817   -1.2135    0.0000 C   0  0  0  0  0  0  0  0  0  0  0  0
   -5.3083   -0.7500    0.0000 C   0  0  0  0  0  0  0  0  0  0  0  0
   -5.3083    0.7500    0.0000 C   0  0  0  0  0  0  0  0  0  0  0  0
   -6.5218    1.6317    0.0000 C   0  0  0  0  0  0  0  0  0  0  0  0
   -7.9484    1.1682    0.0000 N   0  0  0  0  0  0  0  0  0  0  0  0
   -8.8301    2.3817    0.0000 N   0  0  0  0  0  0  0  0  0  0  0  0
   -7.9484    3.5952    0.0000 N   0  0  0  0  0  0  0  0  0  0  0  0
   -6.5218    3.1317    0.0000 N   0  0  0  0  0  0  0  0  0  0  0  0
   -5.3083    4.0134    0.0000 C   0  0  0  0  0  0  0  0  0  0  0  0
   -3.9379    3.4033    0.0000 C   0  0  0  0  0  0  0  0  0  0  0  0
   -2.7244    4.2849    0.0000 C   0  0  0  0  0  0  0  0  0  0  0  0
   -2.8812    5.7767    0.0000 C   0  0  0  0  0  0  0  0  0  0  0  0
   -4.2515    6.3868    0.0000 C   0  0  0  0  0  0  0  0  0  0  0  0
   -5.4651    5.5051    0.0000 C   0  0  0  0  0  0  0  0  0  0  0  0
   -3.8817    1.2135    0.0000 C   0  0  0  0  0  0  0  0  0  0  0  0
   -3.4182    2.6401    0.0000 O   0  0  0  0  0  0  0  0  0  0  0  0
   -0.7500    1.2990    0.0000 C   0  0  0  0  0  0  0  0  0  0  0  0
   -1.5000    2.5981    0.0000 O   0  0  0  0  0  0  0  0  0  0  0  0
    0.7500    1.2990    0.0000 N   0  0  0  0  0  0  0  0  0  0  0  0
  1  2  1  0
  2  3  1  0
  3  4  2  0
  4  5  1  0
  5  6  2  0
  6  7  1  0
  7  8  2  0
  8  9  1  0
  9 10  2  0
 10 11  1  0
 11 12  2  0
 12 13  1  0
 13 14  2  0
 14 15  1  0
 15 16  1  0
 16 17  2  0
 17 18  1  0
 18 19  2  0
 19 20  1  0
 20 21  2  0
 10 22  1  0
 22 23  2  0
  6 24  1  0
 24 25  2  0
 24 26  1  0
 26  3  1  0
 22  7  1  0
 15 11  1  0
 21 16  1  0
M  END
>  <Title>  (382) 
idAAORgen7

$$$$

     RDKit          2D

 25 28  0  0  0  0  0  0  0  0999 V2000
    3.0000    0.0000    0.0000 C   0  0  0  0  0  0  0  0  0  0  0  0
    1.5000    0.0000    0.0000 C   0  0  0  0  0  0  0  0  0  0  0  0
    0.7500    1.2990    0.0000 C   0  0  0  0  0  0  0  0  0  0  0  0
   -0.7500    1.2990    0.0000 C   0  0  0  0  0  0  0  0  0  0  0  0
   -1.5000    0.0000    0.0000 C   0  0  0  0  0  0  0  0  0  0  0  0
   -3.0000    0.0000    0.0000 C   0  0  0  0  0  0  0  0  0  0  0  0
   -3.8817   -1.2135    0.0000 N   0  0  0  0  0  0  0  0  0  0  0  0
   -5.3083   -0.7500    0.0000 N   0  0  0  0  0  0  0  0  0  0  0  0
   -5.3083    0.7500    0.0000 N   0  0  0  0  0  0  0  0  0  0  0  0
   -3.8817    1.2135    0.0000 N   0  0  0  0  0  0  0  0  0  0  0  0
   -3.4182    2.6401    0.0000 C   0  0  0  0  0  0  0  0  0  0  0  0
   -4.2998    3.8536    0.0000 C   0  0  0  0  0  0  0  0  0  0  0  0
   -3.4182    5.0672    0.0000 C   0  0  0  0  0  0  0  0  0  0  0  0
   -1.9916    4.6036    0.0000 C   0  0  0  0  0  0  0  0  0  0  0  0
   -0.7780    5.4853    0.0000 C   0  0  0  0  0  0  0  0  0  0  0  0
    0.5923    4.8752    0.0000 C   0  0  0  0  0  0  0  0  0  0  0  0
    1.8058    5.7569    0.0000 C   0  0  0  0  0  0  0  0  0  0  0  0
    1.6490    7.2487    0.0000 C   0  0  0  0  0  0  0  0  0  0  0  0
    0.2787    7.8588    0.0000 C   0  0  0  0  0  0  0  0  0  0  0  0
   -0.9348    6.9771    0.0000 C   0  0  0  0  0  0  0  0  0  0  0  0
   -1.9916    3.1036    0.0000 C   0  0  0  0  0  0  0  0  0  0  0  0
   -0.7780    2.2220    0.0000 O   0  0  0  0  0  0  0  0  0  0  0  0
   -0.7500   -1.2990    0.0000 C   0  0  0  0  0  0  0  0  0  0  0  0
   -1.5000   -2.5981    0.0000 O   0  0  0  0  0  0  0  0  0  0  0  0
    0.7500   -1.2990    0.0000 N   0  0  0  0  0  0  0  0  0  0  0  0
  1  2  1  0
  2  3  2  0
  3  4  1  0
  4  5  2  0
  5  6  1  0
  6  7  2  0
  7  8  1  0
  8  9  2  0
  9 10  1  0
 10 11  1  0
 11 12  2  0
 12 13  1  0
 13 14  2  0
 14 15  1  0
 15 16  2  0
 16 17  1  0
 17 18  2  0
 18 19  1  0
 19 20  2  0
 14 21  1  0
 21 22  2  0
  5 23  1  0
 23 24  2  0
 23 25  1  0
 25  2  1  0
 10  6  1  0
 21 11  1  0
 20 15  1  0
M  END
>  <Title>  (383) 
idAAOSgen7

$$$$

     RDKit          2D

 59 67  0  0  0  0  0  0  0  0999 V2000
   -0.7500   -3.8971    0.0000 O   0  0  0  0  0  0  0  0  0  0  0  0
    0.7500   -3.8971    0.0000 C   0  0  0  0  0  0  0  0  0  0  0  0
    1.5000   -2.5981    0.0000 N   0  0  0  0  0  0  0  0  0  0  0  0
    0.7500   -1.2990    0.0000 C   0  0  0  0  0  0  0  0  0  0  0  0
    1.5000    0.0000    0.0000 C   0  0  0  0  0  0  0  0  0  0  0  0
    0.7500    1.2990    0.0000 C   0  0  0  0  0  0  0  0  0  0  0  0
   -0.7500    1.2990    0.0000 C   0  0  0  0  0  0  0  0  0  0  0  0
   -1.5000    2.5981    0.0000 C   0  0  0  0  0  0  0  0  0  0  0  0
   -2.9918    2.7549    0.0000 N   0  0  0  0  0  0  0  0  0  0  0  0
   -3.3037    4.2221    0.0000 N   0  0  0  0  0  0  0  0  0  0  0  0
   -2.0046    4.9721    0.0000 N   0  0  0  0  0  0  0  0  0  0  0  0
   -0.8899    3.9684    0.0000 N   0  0  0  0  0  0  0  0  0  0  0  0
    0.5773    4.2803    0.0000 C   0  0  0  0  0  0  0  0  0  0  0  0
    1.1874    5.6506    0.0000 C   0  0  0  0  0  0  0  0  0  0  0  0
    2.6792    5.4938    0.0000 C   0  0  0  0  0  0  0  0  0  0  0  0
    2.9911    4.0266    0.0000 C   0  0  0  0  0  0  0  0  0  0  0  0
    4.3614    3.4165    0.0000 N   0  0  0  0  0  0  0  0  0  0  0  0
    4.5182    1.9247    0.0000 C   0  0  0  0  0  0  0  0  0  0  0  0
    5.8885    1.3146    0.0000 C   0  0  0  0  0  0  0  0  0  0  0  0
    7.1020    2.1963    0.0000 N   0  0  0  0  0  0  0  0  0  0  0  0
    6.9452    3.6880    0.0000 C   0  0  0  0  0  0  0  0  0  0  0  0
    5.5749    4.2981    0.0000 C   0  0  0  0  0  0  0  0  0  0  0  0
    1.6920    3.2766    0.0000 C   0  0  0  0  0  0  0  0  0  0  0  0
    1.5353    1.7848    0.0000 O   0  0  0  0  0  0  0  0  0  0  0  0
   -1.5000    0.0000    0.0000 C   0  0  0  0  0  0  0  0  0  0  0  0
   -0.7500   -1.2990    0.0000 C   0  0  0  0  0  0  0  0  0  0  0  0
    1.5000   -5.1962    0.0000 N   0  0  0  0  0  0  0  0  0  0  0  0
    0.7500   -6.4952    0.0000 C   0  0  0  0  0  0  0  0  0  0  0  0
   -0.7500   -6.4952    0.0000 C   0  0  0  0  0  0  0  0  0  0  0  0
   -1.5000   -7.7942    0.0000 C   0  0  0  0  0  0  0  0  0  0  0  0
   -0.7500   -9.0933    0.0000 C   0  0  0  0  0  0  0  0  0  0  0  0
   -1.5000  -10.3923    0.0000 C   0  0  0  0  0  0  0  0  0  0  0  0
   -3.0000  -10.3923    0.0000 C   0  0  0  0  0  0  0  0  0  0  0  0
   -3.8817   -9.1788    0.0000 N   0  0  0  0  0  0  0  0  0  0  0  0
   -5.3083   -9.6423    0.0000 N   0  0  0  0  0  0  0  0  0  0  0  0
   -5.3083  -11.1423    0.0000 N   0  0  0  0  0  0  0  0  0  0  0  0
   -3.8817  -11.6058    0.0000 N   0  0  0  0  0  0  0  0  0  0  0  0
   -3.4182  -13.0324    0.0000 C   0  0  0  0  0  0  0  0  0  0  0  0
   -1.9509  -13.3443    0.0000 C   0  0  0  0  0  0  0  0  0  0  0  0
   -1.4874  -14.7709    0.0000 C   0  0  0  0  0  0  0  0  0  0  0  0
   -2.4911  -15.8856    0.0000 C   0  0  0  0  0  0  0  0  0  0  0  0
   -2.0276  -17.3122    0.0000 N   0  0  0  0  0  0  0  0  0  0  0  0
   -3.0313  -18.4269    0.0000 C   0  0  0  0  0  0  0  0  0  0  0  0
   -2.5677  -19.8535    0.0000 C   0  0  0  0  0  0  0  0  0  0  0  0
   -3.5714  -20.9682    0.0000 C   0  0  0  0  0  0  0  0  0  0  0  0
   -5.0387  -20.6563    0.0000 C   0  0  0  0  0  0  0  0  0  0  0  0
   -6.0424  -21.7710    0.0000 C   0  0  0  0  0  0  0  0  0  0  0  0
   -5.5788  -23.1976    0.0000 C   0  0  0  0  0  0  0  0  0  0  0  0
   -6.5825  -24.3123    0.0000 C   0  0  0  0  0  0  0  0  0  0  0  0
   -8.0498  -24.0005    0.0000 C   0  0  0  0  0  0  0  0  0  0  0  0
   -8.5133  -22.5739    0.0000 C   0  0  0  0  0  0  0  0  0  0  0  0
   -7.5096  -21.4592    0.0000 C   0  0  0  0  0  0  0  0  0  0  0  0
   -5.5022  -19.2297    0.0000 C   0  0  0  0  0  0  0  0  0  0  0  0
   -4.4985  -18.1150    0.0000 C   0  0  0  0  0  0  0  0  0  0  0  0
   -3.9583  -15.5737    0.0000 C   0  0  0  0  0  0  0  0  0  0  0  0
   -4.4218  -14.1471    0.0000 C   0  0  0  0  0  0  0  0  0  0  0  0
    0.7500   -9.0933    0.0000 C   0  0  0  0  0  0  0  0  0  0  0  0
    1.5000  -10.3923    0.0000 O   0  0  0  0  0  0  0  0  0  0  0  0
    1.5000   -7.7942    0.0000 N   0  0  0  0  0  0  0  0  0  0  0  0
  1  2  2  0
  2  3  1  0
  3  4  1  0
  4  5  2  0
  5  6  1  0
  6  7  2  0
  7  8  1  0
  8  9  2  0
  9 10  1  0
 10 11  2  0
 11 12  1  0
 12 13  1  0
 13 14  2  0
 14 15  1  0
 15 16  2  0
 16 17  1  0
 17 18  1  0
 18 19  1  0
 19 20  1  0
 20 21  1  0
 21 22  1  0
 16 23  1  0
 23 24  2  0
  7 25  1  0
 25 26  2  0
  2 27  1  0
 27 28  1  0
 28 29  2  0
 29 30  1  0
 30 31  2  0
 31 32  1  0
 32 33  1  0
 33 34  2  0
 34 35  1  0
 35 36  2  0
 36 37  1  0
 37 38  1  0
 38 39  2  0
 39 40  1  0
 40 41  2  0
 41 42  1  0
 42 43  1  0
 43 44  2  0
 44 45  1  0
 45 46  2  0
 46 47  1  0
 47 48  2  0
 48 49  1  0
 49 50  2  0
 50 51  1  0
 51 52  2  0
 46 53  1  0
 53 54  2  0
 41 55  1  0
 55 56  2  0
 31 57  1  0
 57 58  2  0
 57 59  1  0
 26  4  1  0
 59 28  1  0
 12  8  1  0
 23 13  1  0
 37 33  1  0
 56 38  1  0
 22 17  1  0
 54 43  1  0
 52 47  1  0
M  END
>  <Title>  (384) 
idAAOTgen7

$$$$

     RDKit          2D

 53 59  0  0  0  0  0  0  0  0999 V2000
    1.1068  -13.1286    0.0000 C   0  0  0  0  0  0  0  0  0  0  0  0
    0.9500  -11.6369    0.0000 C   0  0  0  0  0  0  0  0  0  0  0  0
    2.0647  -10.6332    0.0000 C   0  0  0  0  0  0  0  0  0  0  0  0
    1.4546   -9.2628    0.0000 C   0  0  0  0  0  0  0  0  0  0  0  0
   -0.0372   -9.4196    0.0000 C   0  0  0  0  0  0  0  0  0  0  0  0
   -1.0409   -8.3049    0.0000 C   0  0  0  0  0  0  0  0  0  0  0  0
   -2.5081   -8.6168    0.0000 C   0  0  0  0  0  0  0  0  0  0  0  0
   -3.5118   -7.5021    0.0000 C   0  0  0  0  0  0  0  0  0  0  0  0
   -4.9790   -7.8139    0.0000 C   0  0  0  0  0  0  0  0  0  0  0  0
   -5.4425   -9.2405    0.0000 C   0  0  0  0  0  0  0  0  0  0  0  0
   -6.9097   -9.5524    0.0000 C   0  0  0  0  0  0  0  0  0  0  0  0
   -7.9134   -8.4377    0.0000 C   0  0  0  0  0  0  0  0  0  0  0  0
   -7.4499   -7.0111    0.0000 C   0  0  0  0  0  0  0  0  0  0  0  0
   -5.9827   -6.6992    0.0000 C   0  0  0  0  0  0  0  0  0  0  0  0
   -3.0482   -6.0755    0.0000 C   0  0  0  0  0  0  0  0  0  0  0  0
   -1.5810   -5.7636    0.0000 C   0  0  0  0  0  0  0  0  0  0  0  0
   -0.5773   -6.8783    0.0000 C   0  0  0  0  0  0  0  0  0  0  0  0
    0.8899   -6.5665    0.0000 N   0  0  0  0  0  0  0  0  0  0  0  0
    2.0046   -7.5702    0.0000 N   0  0  0  0  0  0  0  0  0  0  0  0
    3.3037   -6.8202    0.0000 C   0  0  0  0  0  0  0  0  0  0  0  0
    2.9918   -5.3529    0.0000 N   0  0  0  0  0  0  0  0  0  0  0  0
    1.5000   -5.1962    0.0000 C   0  0  0  0  0  0  0  0  0  0  0  0
    0.7500   -3.8971    0.0000 N   0  0  0  0  0  0  0  0  0  0  0  0
    1.5000   -2.5981    0.0000 C   0  0  0  0  0  0  0  0  0  0  0  0
    3.0000   -2.5981    0.0000 O   0  0  0  0  0  0  0  0  0  0  0  0
    0.7500   -1.2990    0.0000 C   0  0  0  0  0  0  0  0  0  0  0  0
    1.5000    0.0000    0.0000 C   0  0  0  0  0  0  0  0  0  0  0  0
    0.7500    1.2990    0.0000 C   0  0  0  0  0  0  0  0  0  0  0  0
   -0.7500    1.2990    0.0000 C   0  0  0  0  0  0  0  0  0  0  0  0
   -1.2980    2.6953    0.0000 C   0  0  0  0  0  0  0  0  0  0  0  0
   -0.2778    3.7949    0.0000 C   0  0  0  0  0  0  0  0  0  0  0  0
    1.1846    3.4611    0.0000 O   0  0  0  0  0  0  0  0  0  0  0  0
   -0.7199    5.2283    0.0000 N   0  0  0  0  0  0  0  0  0  0  0  0
    0.3004    6.3279    0.0000 C   0  0  0  0  0  0  0  0  0  0  0  0
    0.0105    7.7996    0.0000 N   0  0  0  0  0  0  0  0  0  0  0  0
    1.3206    8.5301    0.0000 C   0  0  0  0  0  0  0  0  0  0  0  0
    1.4997   10.0193    0.0000 C   0  0  0  0  0  0  0  0  0  0  0  0
    0.2995   10.9191    0.0000 O   0  0  0  0  0  0  0  0  0  0  0  0
    2.8790   10.6089    0.0000 O   0  0  0  0  0  0  0  0  0  0  0  0
    2.4202    7.5098    0.0000 C   0  0  0  0  0  0  0  0  0  0  0  0
    3.8919    7.7997    0.0000 C   0  0  0  0  0  0  0  0  0  0  0  0
    1.7896    6.1488    0.0000 C   0  0  0  0  0  0  0  0  0  0  0  0
    2.5201    4.8387    0.0000 O   0  0  0  0  0  0  0  0  0  0  0  0
   -2.7314    3.1375    0.0000 C   0  0  0  0  0  0  0  0  0  0  0  0
   -3.9707    2.2925    0.0000 C   0  0  0  0  0  0  0  0  0  0  0  0
   -4.0828    0.7967    0.0000 C   0  0  0  0  0  0  0  0  0  0  0  0
   -5.4791    0.2487    0.0000 C   0  0  0  0  0  0  0  0  0  0  0  0
   -2.9832   -0.2236    0.0000 C   0  0  0  0  0  0  0  0  0  0  0  0
   -3.4254   -1.6569    0.0000 O   0  0  0  0  0  0  0  0  0  0  0  0
   -1.5000    0.0000    0.0000 C   0  0  0  0  0  0  0  0  0  0  0  0
   -0.7500   -1.2990    0.0000 C   0  0  0  0  0  0  0  0  0  0  0  0
   -0.3490  -10.8869    0.0000 C   0  0  0  0  0  0  0  0  0  0  0  0
   -1.7193  -11.4970    0.0000 O   0  0  0  0  0  0  0  0  0  0  0  0
  1  2  1  0
  2  3  2  0
  3  4  1  0
  4  5  2  0
  5  6  1  0
  6  7  2  0
  7  8  1  0
  8  9  1  0
  9 10  2  0
 10 11  1  0
 11 12  2  0
 12 13  1  0
 13 14  2  0
  8 15  2  0
 15 16  1  0
 16 17  2  0
 17 18  1  0
 18 19  1  0
 19 20  2  0
 20 21  1  0
 21 22  2  0
 22 23  1  0
 23 24  1  0
 24 25  2  0
 24 26  1  0
 26 27  2  0
 27 28  1  0
 28 29  2  0
 29 30  1  0
 30 31  1  0
 31 32  2  0
 31 33  1  0
 33 34  1  0
 34 35  2  0
 35 36  1  0
 36 37  1  0
 37 38  2  0
 37 39  1  0
 36 40  2  0
 40 41  1  0
 40 42  1  0
 42 43  2  0
 30 44  2  0
 44 45  1  0
 45 46  2  0
 46 47  1  0
 46 48  1  0
 48 49  2  0
 48 50  1  0
 50 51  2  0
  5 52  1  0
 52 53  2  0
 52  2  1  0
 17  6  1  0
 22 18  1  0
 51 26  1  0
 14  9  1  0
 50 29  1  0
 42 34  1  0
M  END
>  <Title>  (385) 
idAAOUgen7

$$$$

     RDKit          2D

 16 16  0  0  0  0  0  0  0  0999 V2000
    5.6205   -1.2990    0.0000 O   0  0  0  0  0  0  0  0  0  0  0  0
    4.8705    0.0000    0.0000 C   0  0  0  0  0  0  0  0  0  0  0  0
    3.3705    0.0000    0.0000 C   0  0  0  0  0  0  0  0  0  0  0  0
    3.0367   -1.4624    0.0000 C   0  0  0  0  0  0  0  0  0  0  0  0
    2.1015   -2.6351    0.0000 C   0  0  0  0  0  0  0  0  0  0  0  0
    0.7500   -3.2860    0.0000 C   0  0  0  0  0  0  0  0  0  0  0  0
   -0.7500   -3.2860    0.0000 C   0  0  0  0  0  0  0  0  0  0  0  0
   -2.1015   -2.6351    0.0000 C   0  0  0  0  0  0  0  0  0  0  0  0
   -3.0367   -1.4624    0.0000 C   0  0  0  0  0  0  0  0  0  0  0  0
   -3.3705    0.0000    0.0000 C   0  0  0  0  0  0  0  0  0  0  0  0
   -3.0367    1.4624    0.0000 C   0  0  0  0  0  0  0  0  0  0  0  0
   -2.1015    2.6351    0.0000 C   0  0  0  0  0  0  0  0  0  0  0  0
   -0.7500    3.2860    0.0000 C   0  0  0  0  0  0  0  0  0  0  0  0
    0.7500    3.2860    0.0000 C   0  0  0  0  0  0  0  0  0  0  0  0
    2.1015    2.6351    0.0000 C   0  0  0  0  0  0  0  0  0  0  0  0
    3.0367    1.4624    0.0000 C   0  0  0  0  0  0  0  0  0  0  0  0
  1  2  1  0
  2  3  1  0
  3  4  2  0
  4  5  1  0
  5  6  2  0
  6  7  1  0
  7  8  2  0
  8  9  1  0
  9 10  2  0
 10 11  1  0
 11 12  2  0
 12 13  1  0
 13 14  2  0
 14 15  1  0
 15 16  2  0
 16  3  1  0
M  END
>  <Title>  (386) 
idAAOVgen7

$$$$

     RDKit          2D

 27 30  0  0  0  0  0  0  0  0999 V2000
    3.0000    0.0000    0.0000 C   0  0  0  0  0  0  0  0  0  0  0  0
    1.5000    0.0000    0.0000 C   0  0  0  0  0  0  0  0  0  0  0  0
    0.7500   -1.2990    0.0000 C   0  0  0  0  0  0  0  0  0  0  0  0
   -0.7500   -1.2990    0.0000 C   0  0  0  0  0  0  0  0  0  0  0  0
   -1.5000    0.0000    0.0000 C   0  0  0  0  0  0  0  0  0  0  0  0
   -3.0000    0.0000    0.0000 C   0  0  0  0  0  0  0  0  0  0  0  0
   -3.7500   -1.2990    0.0000 O   0  0  0  0  0  0  0  0  0  0  0  0
   -3.7500    1.2990    0.0000 N   0  0  0  0  0  0  0  0  0  0  0  0
   -5.2500    1.2990    0.0000 C   0  0  0  0  0  0  0  0  0  0  0  0
   -6.1317    0.0855    0.0000 N   0  0  0  0  0  0  0  0  0  0  0  0
   -7.5583    0.5490    0.0000 C   0  0  0  0  0  0  0  0  0  0  0  0
   -7.5583    2.0490    0.0000 N   0  0  0  0  0  0  0  0  0  0  0  0
   -6.1317    2.5126    0.0000 N   0  0  0  0  0  0  0  0  0  0  0  0
   -5.6682    3.9391    0.0000 C   0  0  0  0  0  0  0  0  0  0  0  0
   -4.2009    4.2510    0.0000 C   0  0  0  0  0  0  0  0  0  0  0  0
   -3.7374    5.6776    0.0000 C   0  0  0  0  0  0  0  0  0  0  0  0
   -4.7411    6.7923    0.0000 C   0  0  0  0  0  0  0  0  0  0  0  0
   -4.2776    8.2189    0.0000 C   0  0  0  0  0  0  0  0  0  0  0  0
   -2.8104    8.5308    0.0000 C   0  0  0  0  0  0  0  0  0  0  0  0
   -2.3468    9.9574    0.0000 C   0  0  0  0  0  0  0  0  0  0  0  0
   -3.3505   11.0721    0.0000 C   0  0  0  0  0  0  0  0  0  0  0  0
   -4.8177   10.7602    0.0000 C   0  0  0  0  0  0  0  0  0  0  0  0
   -5.2813    9.3336    0.0000 C   0  0  0  0  0  0  0  0  0  0  0  0
   -6.2083    6.4805    0.0000 C   0  0  0  0  0  0  0  0  0  0  0  0
   -6.6718    5.0539    0.0000 C   0  0  0  0  0  0  0  0  0  0  0  0
   -0.7500    1.2990    0.0000 C   0  0  0  0  0  0  0  0  0  0  0  0
    0.7500    1.2990    0.0000 C   0  0  0  0  0  0  0  0  0  0  0  0
  1  2  1  0
  2  3  2  0
  3  4  1  0
  4  5  2  0
  5  6  1  0
  6  7  2  0
  6  8  1  0
  8  9  1  0
  9 10  2  0
 10 11  1  0
 11 12  2  0
 12 13  1  0
 13 14  1  0
 14 15  2  0
 15 16  1  0
 16 17  2  0
 17 18  1  0
 18 19  2  0
 19 20  1  0
 20 21  2  0
 21 22  1  0
 22 23  2  0
 17 24  1  0
 24 25  2  0
  5 26  1  0
 26 27  2  0
 27  2  1  0
 13  9  1  0
 25 14  1  0
 23 18  1  0
M  END
>  <Title>  (387) 
idAAOWgen7

$$$$

     RDKit          2D

 25 28  0  0  0  0  0  0  0  0999 V2000
    8.5683   -1.2295    0.0000 C   0  0  0  0  0  0  0  0  0  0  0  0
    7.5646   -0.1148    0.0000 O   0  0  0  0  0  0  0  0  0  0  0  0
    6.0974   -0.4266    0.0000 C   0  0  0  0  0  0  0  0  0  0  0  0
    4.9826    0.5771    0.0000 C   0  0  0  0  0  0  0  0  0  0  0  0
    3.6836   -0.1729    0.0000 C   0  0  0  0  0  0  0  0  0  0  0  0
    3.9955   -1.6402    0.0000 C   0  0  0  0  0  0  0  0  0  0  0  0
    2.9918   -2.7549    0.0000 C   0  0  0  0  0  0  0  0  0  0  0  0
    3.3037   -4.2221    0.0000 N   0  0  0  0  0  0  0  0  0  0  0  0
    2.0046   -4.9721    0.0000 N   0  0  0  0  0  0  0  0  0  0  0  0
    0.8899   -3.9684    0.0000 N   0  0  0  0  0  0  0  0  0  0  0  0
    1.5000   -2.5981    0.0000 N   0  0  0  0  0  0  0  0  0  0  0  0
    0.7500   -1.2990    0.0000 C   0  0  0  0  0  0  0  0  0  0  0  0
    1.5000    0.0000    0.0000 C   0  0  0  0  0  0  0  0  0  0  0  0
    0.7500    1.2990    0.0000 C   0  0  0  0  0  0  0  0  0  0  0  0
   -0.7500    1.2990    0.0000 C   0  0  0  0  0  0  0  0  0  0  0  0
   -1.5000    2.5981    0.0000 C   0  0  0  0  0  0  0  0  0  0  0  0
   -0.7500    3.8971    0.0000 C   0  0  0  0  0  0  0  0  0  0  0  0
   -1.5000    5.1962    0.0000 C   0  0  0  0  0  0  0  0  0  0  0  0
   -3.0000    5.1962    0.0000 C   0  0  0  0  0  0  0  0  0  0  0  0
   -3.7500    3.8971    0.0000 C   0  0  0  0  0  0  0  0  0  0  0  0
   -3.0000    2.5981    0.0000 C   0  0  0  0  0  0  0  0  0  0  0  0
   -1.5000    0.0000    0.0000 C   0  0  0  0  0  0  0  0  0  0  0  0
   -0.7500   -1.2990    0.0000 C   0  0  0  0  0  0  0  0  0  0  0  0
    5.4873   -1.7969    0.0000 C   0  0  0  0  0  0  0  0  0  0  0  0
    6.2373   -3.0960    0.0000 O   0  0  0  0  0  0  0  0  0  0  0  0
  1  2  1  0
  2  3  1  0
  3  4  2  0
  4  5  1  0
  5  6  2  0
  6  7  1  0
  7  8  2  0
  8  9  1  0
  9 10  2  0
 10 11  1  0
 11 12  1  0
 12 13  2  0
 13 14  1  0
 14 15  2  0
 15 16  1  0
 16 17  2  0
 17 18  1  0
 18 19  2  0
 19 20  1  0
 20 21  2  0
 15 22  1  0
 22 23  2  0
  6 24  1  0
 24 25  2  0
 24  3  1  0
 11  7  1  0
 23 12  1  0
 21 16  1  0
M  END
>  <Title>  (388) 
idAAOXgen7

$$$$

     RDKit          2D

 23 25  0  0  0  0  0  0  0  0999 V2000
    3.0000    0.0000    0.0000 C   0  0  0  0  0  0  0  0  0  0  0  0
    1.5000    0.0000    0.0000 C   0  0  0  0  0  0  0  0  0  0  0  0
    0.7500    1.2990    0.0000 C   0  0  0  0  0  0  0  0  0  0  0  0
   -0.7500    1.2990    0.0000 C   0  0  0  0  0  0  0  0  0  0  0  0
   -1.5000    0.0000    0.0000 C   0  0  0  0  0  0  0  0  0  0  0  0
   -3.0000    0.0000    0.0000 C   0  0  0  0  0  0  0  0  0  0  0  0
   -3.8817   -1.2135    0.0000 C   0  0  0  0  0  0  0  0  0  0  0  0
   -5.3083   -0.7500    0.0000 N   0  0  0  0  0  0  0  0  0  0  0  0
   -5.3083    0.7500    0.0000 N   0  0  0  0  0  0  0  0  0  0  0  0
   -3.8817    1.2135    0.0000 N   0  0  0  0  0  0  0  0  0  0  0  0
   -3.4182    2.6401    0.0000 C   0  0  0  0  0  0  0  0  0  0  0  0
   -1.9509    2.9520    0.0000 C   0  0  0  0  0  0  0  0  0  0  0  0
   -1.4874    4.3786    0.0000 C   0  0  0  0  0  0  0  0  0  0  0  0
   -2.4911    5.4933    0.0000 C   0  0  0  0  0  0  0  0  0  0  0  0
   -2.0276    6.9199    0.0000 C   0  0  0  0  0  0  0  0  0  0  0  0
   -3.0313    8.0346    0.0000 O   0  0  0  0  0  0  0  0  0  0  0  0
   -0.5604    7.2317    0.0000 N   0  0  0  0  0  0  0  0  0  0  0  0
   -0.0968    8.6583    0.0000 O   0  0  0  0  0  0  0  0  0  0  0  0
   -3.9583    5.1814    0.0000 C   0  0  0  0  0  0  0  0  0  0  0  0
   -4.4218    3.7548    0.0000 C   0  0  0  0  0  0  0  0  0  0  0  0
   -0.7500   -1.2990    0.0000 C   0  0  0  0  0  0  0  0  0  0  0  0
   -1.5000   -2.5981    0.0000 O   0  0  0  0  0  0  0  0  0  0  0  0
    0.7500   -1.2990    0.0000 N   0  0  0  0  0  0  0  0  0  0  0  0
  1  2  1  0
  2  3  2  0
  3  4  1  0
  4  5  2  0
  5  6  1  0
  6  7  2  0
  7  8  1  0
  8  9  2  0
  9 10  1  0
 10 11  1  0
 11 12  2  0
 12 13  1  0
 13 14  2  0
 14 15  1  0
 15 16  2  0
 15 17  1  0
 17 18  1  0
 14 19  1  0
 19 20  1  0
  5 21  1  0
 21 22  2  0
 21 23  1  0
 23  2  1  0
 10  6  1  0
 20 11  1  0
M  END
>  <Title>  (389) 
idAAOYgen7

$$$$

     RDKit          2D

 43 49  0  0  0  0  0  0  0  0999 V2000
    3.0000    0.0000    0.0000 C   0  0  0  0  0  0  0  0  0  0  0  0
    1.5000    0.0000    0.0000 C   0  0  0  0  0  0  0  0  0  0  0  0
    0.7500    1.2990    0.0000 C   0  0  0  0  0  0  0  0  0  0  0  0
   -0.7500    1.2990    0.0000 C   0  0  0  0  0  0  0  0  0  0  0  0
   -1.5000    0.0000    0.0000 C   0  0  0  0  0  0  0  0  0  0  0  0
   -3.0000    0.0000    0.0000 C   0  0  0  0  0  0  0  0  0  0  0  0
   -3.8817   -1.2135    0.0000 N   0  0  0  0  0  0  0  0  0  0  0  0
   -5.3083   -0.7500    0.0000 N   0  0  0  0  0  0  0  0  0  0  0  0
   -5.3083    0.7500    0.0000 N   0  0  0  0  0  0  0  0  0  0  0  0
   -3.8817    1.2135    0.0000 N   0  0  0  0  0  0  0  0  0  0  0  0
   -3.4182    2.6401    0.0000 C   0  0  0  0  0  0  0  0  0  0  0  0
   -1.9509    2.9520    0.0000 C   0  0  0  0  0  0  0  0  0  0  0  0
   -1.4874    4.3786    0.0000 C   0  0  0  0  0  0  0  0  0  0  0  0
   -2.4911    5.4933    0.0000 C   0  0  0  0  0  0  0  0  0  0  0  0
   -3.9583    5.1814    0.0000 C   0  0  0  0  0  0  0  0  0  0  0  0
   -4.4218    3.7548    0.0000 C   0  0  0  0  0  0  0  0  0  0  0  0
   -5.8891    3.4430    0.0000 C   0  0  0  0  0  0  0  0  0  0  0  0
   -6.4992    2.0726    0.0000 C   0  0  0  0  0  0  0  0  0  0  0  0
   -7.9910    2.2294    0.0000 C   0  0  0  0  0  0  0  0  0  0  0  0
   -8.3028    3.6967    0.0000 C   0  0  0  0  0  0  0  0  0  0  0  0
   -9.6731    4.3068    0.0000 C   0  0  0  0  0  0  0  0  0  0  0  0
   -9.8299    5.7985    0.0000 C   0  0  0  0  0  0  0  0  0  0  0  0
  -11.2003    6.4086    0.0000 C   0  0  0  0  0  0  0  0  0  0  0  0
  -12.4138    5.5270    0.0000 C   0  0  0  0  0  0  0  0  0  0  0  0
  -13.7841    6.1371    0.0000 C   0  0  0  0  0  0  0  0  0  0  0  0
  -13.9409    7.6289    0.0000 C   0  0  0  0  0  0  0  0  0  0  0  0
  -15.3112    8.2390    0.0000 C   0  0  0  0  0  0  0  0  0  0  0  0
  -16.5247    7.3573    0.0000 C   0  0  0  0  0  0  0  0  0  0  0  0
  -16.3679    5.8655    0.0000 C   0  0  0  0  0  0  0  0  0  0  0  0
  -14.9976    5.2554    0.0000 C   0  0  0  0  0  0  0  0  0  0  0  0
  -12.2570    4.0352    0.0000 C   0  0  0  0  0  0  0  0  0  0  0  0
  -10.8867    3.4251    0.0000 C   0  0  0  0  0  0  0  0  0  0  0  0
  -10.7299    1.9333    0.0000 C   0  0  0  0  0  0  0  0  0  0  0  0
  -11.9434    1.0516    0.0000 C   0  0  0  0  0  0  0  0  0  0  0  0
  -11.7866   -0.4402    0.0000 C   0  0  0  0  0  0  0  0  0  0  0  0
  -10.4163   -1.0503    0.0000 C   0  0  0  0  0  0  0  0  0  0  0  0
   -9.2028   -0.1686    0.0000 C   0  0  0  0  0  0  0  0  0  0  0  0
   -9.3596    1.3232    0.0000 C   0  0  0  0  0  0  0  0  0  0  0  0
   -7.0038    4.4467    0.0000 C   0  0  0  0  0  0  0  0  0  0  0  0
   -6.8470    5.9384    0.0000 O   0  0  0  0  0  0  0  0  0  0  0  0
   -0.7500   -1.2990    0.0000 C   0  0  0  0  0  0  0  0  0  0  0  0
   -1.5000   -2.5981    0.0000 O   0  0  0  0  0  0  0  0  0  0  0  0
    0.7500   -1.2990    0.0000 N   0  0  0  0  0  0  0  0  0  0  0  0
  1  2  1  0
  2  3  2  0
  3  4  1  0
  4  5  2  0
  5  6  1  0
  6  7  2  0
  7  8  1  0
  8  9  2  0
  9 10  1  0
 10 11  1  0
 11 12  2  0
 12 13  1  0
 13 14  2  0
 14 15  1  0
 15 16  2  0
 16 17  1  0
 17 18  2  0
 18 19  1  0
 19 20  2  0
 20 21  1  0
 21 22  2  0
 22 23  1  0
 23 24  2  0
 24 25  1  0
 25 26  2  0
 26 27  1  0
 27 28  2  0
 28 29  1  0
 29 30  2  0
 24 31  1  0
 31 32  2  0
 32 33  1  0
 33 34  2  0
 34 35  1  0
 35 36  2  0
 36 37  1  0
 37 38  2  0
 20 39  1  0
 39 40  2  0
  5 41  1  0
 41 42  2  0
 41 43  1  0
 43  2  1  0
 10  6  1  0
 16 11  1  0
 39 17  1  0
 32 21  1  0
 38 33  1  0
 30 25  1  0
M  END
>  <Title>  (390) 
idAAOZgen7

$$$$

     RDKit          2D

 20 20  0  0  0  0  0  0  0  0999 V2000
    7.5944   -1.2990    0.0000 C   0  0  0  0  0  0  0  0  0  0  0  0
    6.0944   -1.2990    0.0000 C   0  0  0  0  0  0  0  0  0  0  0  0
    5.3444   -2.5981    0.0000 O   0  0  0  0  0  0  0  0  0  0  0  0
    5.3444    0.0000    0.0000 O   0  0  0  0  0  0  0  0  0  0  0  0
    3.8444    0.0000    0.0000 C   0  0  0  0  0  0  0  0  0  0  0  0
    3.5517   -1.4712    0.0000 C   0  0  0  0  0  0  0  0  0  0  0  0
    2.7184   -2.7184    0.0000 C   0  0  0  0  0  0  0  0  0  0  0  0
    1.4712   -3.5517    0.0000 C   0  0  0  0  0  0  0  0  0  0  0  0
   -0.0000   -3.8444    0.0000 C   0  0  0  0  0  0  0  0  0  0  0  0
   -1.4712   -3.5517    0.0000 C   0  0  0  0  0  0  0  0  0  0  0  0
   -2.7184   -2.7184    0.0000 C   0  0  0  0  0  0  0  0  0  0  0  0
   -3.5517   -1.4712    0.0000 C   0  0  0  0  0  0  0  0  0  0  0  0
   -3.8444    0.0000    0.0000 C   0  0  0  0  0  0  0  0  0  0  0  0
   -3.5517    1.4712    0.0000 C   0  0  0  0  0  0  0  0  0  0  0  0
   -2.7184    2.7184    0.0000 C   0  0  0  0  0  0  0  0  0  0  0  0
   -1.4712    3.5517    0.0000 C   0  0  0  0  0  0  0  0  0  0  0  0
    0.0000    3.8444    0.0000 C   0  0  0  0  0  0  0  0  0  0  0  0
    1.4712    3.5517    0.0000 C   0  0  0  0  0  0  0  0  0  0  0  0
    2.7184    2.7184    0.0000 C   0  0  0  0  0  0  0  0  0  0  0  0
    3.5517    1.4712    0.0000 C   0  0  0  0  0  0  0  0  0  0  0  0
  1  2  1  0
  2  3  2  0
  2  4  1  0
  4  5  1  0
  5  6  2  0
  6  7  1  0
  7  8  2  0
  8  9  1  0
  9 10  2  0
 10 11  1  0
 11 12  2  0
 12 13  1  0
 13 14  2  0
 14 15  1  0
 15 16  2  0
 16 17  1  0
 17 18  2  0
 18 19  1  0
 19 20  2  0
 20  5  1  0
M  END
>  <Title>  (391) 
idAAPAgen7

$$$$

     RDKit          2D

 41 46  0  0  0  0  0  0  0  0999 V2000
    3.7500   -1.2990    0.0000 C   0  0  0  0  0  0  0  0  0  0  0  0
    3.0000    0.0000    0.0000 O   0  0  0  0  0  0  0  0  0  0  0  0
    1.5000    0.0000    0.0000 C   0  0  0  0  0  0  0  0  0  0  0  0
    0.7500   -1.2990    0.0000 C   0  0  0  0  0  0  0  0  0  0  0  0
   -0.7500   -1.2990    0.0000 C   0  0  0  0  0  0  0  0  0  0  0  0
   -1.5000    0.0000    0.0000 C   0  0  0  0  0  0  0  0  0  0  0  0
   -3.0000    0.0000    0.0000 C   0  0  0  0  0  0  0  0  0  0  0  0
   -3.7500   -1.2990    0.0000 O   0  0  0  0  0  0  0  0  0  0  0  0
   -3.7500    1.2990    0.0000 N   0  0  0  0  0  0  0  0  0  0  0  0
   -5.2500    1.2990    0.0000 C   0  0  0  0  0  0  0  0  0  0  0  0
   -6.1317    0.0855    0.0000 N   0  0  0  0  0  0  0  0  0  0  0  0
   -7.5583    0.5490    0.0000 N   0  0  0  0  0  0  0  0  0  0  0  0
   -7.5583    2.0490    0.0000 N   0  0  0  0  0  0  0  0  0  0  0  0
   -6.1317    2.5126    0.0000 N   0  0  0  0  0  0  0  0  0  0  0  0
   -5.6682    3.9391    0.0000 C   0  0  0  0  0  0  0  0  0  0  0  0
   -4.2009    4.2510    0.0000 C   0  0  0  0  0  0  0  0  0  0  0  0
   -3.7374    5.6776    0.0000 C   0  0  0  0  0  0  0  0  0  0  0  0
   -4.7411    6.7923    0.0000 C   0  0  0  0  0  0  0  0  0  0  0  0
   -4.2776    8.2189    0.0000 C   0  0  0  0  0  0  0  0  0  0  0  0
   -2.8104    8.5308    0.0000 C   0  0  0  0  0  0  0  0  0  0  0  0
   -2.3468    9.9574    0.0000 C   0  0  0  0  0  0  0  0  0  0  0  0
   -3.3505   11.0721    0.0000 C   0  0  0  0  0  0  0  0  0  0  0  0
   -2.8870   12.4987    0.0000 C   0  0  0  0  0  0  0  0  0  0  0  0
   -1.4198   12.8105    0.0000 C   0  0  0  0  0  0  0  0  0  0  0  0
   -0.9563   14.2371    0.0000 C   0  0  0  0  0  0  0  0  0  0  0  0
   -1.9599   15.3518    0.0000 C   0  0  0  0  0  0  0  0  0  0  0  0
   -3.4272   15.0400    0.0000 C   0  0  0  0  0  0  0  0  0  0  0  0
   -3.8907   13.6134    0.0000 C   0  0  0  0  0  0  0  0  0  0  0  0
   -4.8177   10.7602    0.0000 C   0  0  0  0  0  0  0  0  0  0  0  0
   -5.2813    9.3336    0.0000 C   0  0  0  0  0  0  0  0  0  0  0  0
   -6.7485    9.0218    0.0000 C   0  0  0  0  0  0  0  0  0  0  0  0
   -7.7522   10.1365    0.0000 C   0  0  0  0  0  0  0  0  0  0  0  0
   -9.2194    9.8246    0.0000 C   0  0  0  0  0  0  0  0  0  0  0  0
   -9.6829    8.3980    0.0000 C   0  0  0  0  0  0  0  0  0  0  0  0
   -8.6792    7.2833    0.0000 C   0  0  0  0  0  0  0  0  0  0  0  0
   -7.2120    7.5952    0.0000 C   0  0  0  0  0  0  0  0  0  0  0  0
   -6.2083    6.4805    0.0000 C   0  0  0  0  0  0  0  0  0  0  0  0
   -6.6718    5.0539    0.0000 C   0  0  0  0  0  0  0  0  0  0  0  0
   -0.7500    1.2990    0.0000 C   0  0  0  0  0  0  0  0  0  0  0  0
   -1.5000    2.5981    0.0000 O   0  0  0  0  0  0  0  0  0  0  0  0
    0.7500    1.2990    0.0000 N   0  0  0  0  0  0  0  0  0  0  0  0
  1  2  1  0
  2  3  1  0
  3  4  2  0
  4  5  1  0
  5  6  2  0
  6  7  1  0
  7  8  2  0
  7  9  1  0
  9 10  1  0
 10 11  2  0
 11 12  1  0
 12 13  2  0
 13 14  1  0
 14 15  1  0
 15 16  2  0
 16 17  1  0
 17 18  2  0
 18 19  1  0
 19 20  2  0
 20 21  1  0
 21 22  2  0
 22 23  1  0
 23 24  2  0
 24 25  1  0
 25 26  2  0
 26 27  1  0
 27 28  2  0
 22 29  1  0
 29 30  2  0
 30 31  1  0
 31 32  2  0
 32 33  1  0
 33 34  2  0
 34 35  1  0
 35 36  2  0
 18 37  1  0
 37 38  2  0
  6 39  1  0
 39 40  2  0
 39 41  1  0
 41  3  1  0
 14 10  1  0
 38 15  1  0
 30 19  1  0
 36 31  1  0
 28 23  1  0
M  END
>  <Title>  (392) 
idAAPBgen7

$$$$

     RDKit          2D

 61 69  0  0  0  0  0  0  0  0999 V2000
    3.0000    0.0000    0.0000 C   0  0  0  0  0  0  0  0  0  0  0  0
    1.5000    0.0000    0.0000 C   0  0  0  0  0  0  0  0  0  0  0  0
    0.7500   -1.2990    0.0000 C   0  0  0  0  0  0  0  0  0  0  0  0
   -0.7500   -1.2990    0.0000 C   0  0  0  0  0  0  0  0  0  0  0  0
   -1.5000    0.0000    0.0000 C   0  0  0  0  0  0  0  0  0  0  0  0
   -3.0000    0.0000    0.0000 C   0  0  0  0  0  0  0  0  0  0  0  0
   -3.8817   -1.2135    0.0000 N   0  0  0  0  0  0  0  0  0  0  0  0
   -5.3083   -0.7500    0.0000 N   0  0  0  0  0  0  0  0  0  0  0  0
   -5.3083    0.7500    0.0000 N   0  0  0  0  0  0  0  0  0  0  0  0
   -3.8817    1.2135    0.0000 N   0  0  0  0  0  0  0  0  0  0  0  0
   -3.4182    2.6401    0.0000 C   0  0  0  0  0  0  0  0  0  0  0  0
   -1.9509    2.9520    0.0000 C   0  0  0  0  0  0  0  0  0  0  0  0
   -1.4874    4.3786    0.0000 C   0  0  0  0  0  0  0  0  0  0  0  0
   -2.4911    5.4933    0.0000 C   0  0  0  0  0  0  0  0  0  0  0  0
   -2.0276    6.9199    0.0000 C   0  0  0  0  0  0  0  0  0  0  0  0
   -3.0313    8.0346    0.0000 O   0  0  0  0  0  0  0  0  0  0  0  0
   -0.5604    7.2317    0.0000 N   0  0  0  0  0  0  0  0  0  0  0  0
   -0.0968    8.6583    0.0000 C   0  0  0  0  0  0  0  0  0  0  0  0
   -0.9785    9.8718    0.0000 N   0  0  0  0  0  0  0  0  0  0  0  0
   -0.0968   11.0854    0.0000 C   0  0  0  0  0  0  0  0  0  0  0  0
    1.3298   10.6218    0.0000 N   0  0  0  0  0  0  0  0  0  0  0  0
    1.3298    9.1218    0.0000 N   0  0  0  0  0  0  0  0  0  0  0  0
    2.5433    8.2402    0.0000 C   0  0  0  0  0  0  0  0  0  0  0  0
    2.3865    6.7484    0.0000 C   0  0  0  0  0  0  0  0  0  0  0  0
    3.6000    5.8667    0.0000 C   0  0  0  0  0  0  0  0  0  0  0  0
    4.9703    6.4768    0.0000 C   0  0  0  0  0  0  0  0  0  0  0  0
    5.1271    7.9686    0.0000 C   0  0  0  0  0  0  0  0  0  0  0  0
    3.9136    8.8503    0.0000 C   0  0  0  0  0  0  0  0  0  0  0  0
   -3.9583    5.1814    0.0000 C   0  0  0  0  0  0  0  0  0  0  0  0
   -4.4218    3.7548    0.0000 C   0  0  0  0  0  0  0  0  0  0  0  0
   -5.8891    3.4430    0.0000 C   0  0  0  0  0  0  0  0  0  0  0  0
   -6.3526    2.0164    0.0000 C   0  0  0  0  0  0  0  0  0  0  0  0
   -7.8198    1.7045    0.0000 C   0  0  0  0  0  0  0  0  0  0  0  0
   -8.8235    2.8192    0.0000 C   0  0  0  0  0  0  0  0  0  0  0  0
  -10.2907    2.5074    0.0000 C   0  0  0  0  0  0  0  0  0  0  0  0
  -11.2944    3.6221    0.0000 O   0  0  0  0  0  0  0  0  0  0  0  0
  -10.7543    1.0808    0.0000 N   0  0  0  0  0  0  0  0  0  0  0  0
  -12.2215    0.7689    0.0000 C   0  0  0  0  0  0  0  0  0  0  0  0
  -12.6850   -0.6577    0.0000 C   0  0  0  0  0  0  0  0  0  0  0  0
  -14.1522   -0.9695    0.0000 C   0  0  0  0  0  0  0  0  0  0  0  0
  -15.1559    0.1452    0.0000 C   0  0  0  0  0  0  0  0  0  0  0  0
  -16.6231   -0.1667    0.0000 C   0  0  0  0  0  0  0  0  0  0  0  0
  -17.0867   -1.5933    0.0000 C   0  0  0  0  0  0  0  0  0  0  0  0
  -18.5539   -1.9051    0.0000 C   0  0  0  0  0  0  0  0  0  0  0  0
  -19.5576   -0.7904    0.0000 C   0  0  0  0  0  0  0  0  0  0  0  0
  -19.0941    0.6362    0.0000 C   0  0  0  0  0  0  0  0  0  0  0  0
  -17.6268    0.9480    0.0000 C   0  0  0  0  0  0  0  0  0  0  0  0
  -14.6924    1.5718    0.0000 C   0  0  0  0  0  0  0  0  0  0  0  0
  -13.2252    1.8836    0.0000 C   0  0  0  0  0  0  0  0  0  0  0  0
   -8.3600    4.2458    0.0000 C   0  0  0  0  0  0  0  0  0  0  0  0
   -6.8928    4.5577    0.0000 C   0  0  0  0  0  0  0  0  0  0  0  0
   -6.4292    5.9843    0.0000 C   0  0  0  0  0  0  0  0  0  0  0  0
   -4.9620    6.2961    0.0000 C   0  0  0  0  0  0  0  0  0  0  0  0
   -4.4985    7.7227    0.0000 C   0  0  0  0  0  0  0  0  0  0  0  0
   -5.5022    8.8374    0.0000 C   0  0  0  0  0  0  0  0  0  0  0  0
   -5.0387   10.2640    0.0000 C   0  0  0  0  0  0  0  0  0  0  0  0
   -6.9694    8.5256    0.0000 C   0  0  0  0  0  0  0  0  0  0  0  0
   -7.9731    9.6403    0.0000 O   0  0  0  0  0  0  0  0  0  0  0  0
   -7.4329    7.0990    0.0000 N   0  0  0  0  0  0  0  0  0  0  0  0
   -0.7500    1.2990    0.0000 C   0  0  0  0  0  0  0  0  0  0  0  0
    0.7500    1.2990    0.0000 C   0  0  0  0  0  0  0  0  0  0  0  0
  1  2  1  0
  2  3  2  0
  3  4  1  0
  4  5  2  0
  5  6  1  0
  6  7  2  0
  7  8  1  0
  8  9  2  0
  9 10  1  0
 10 11  1  0
 11 12  2  0
 12 13  1  0
 13 14  2  0
 14 15  1  0
 15 16  2  0
 15 17  1  0
 17 18  1  0
 18 19  2  0
 19 20  1  0
 20 21  2  0
 21 22  1  0
 22 23  1  0
 23 24  2  0
 24 25  1  0
 25 26  2  0
 26 27  1  0
 27 28  2  0
 14 29  1  0
 29 30  2  0
 30 31  1  0
 31 32  2  0
 32 33  1  0
 33 34  2  0
 34 35  1  0
 35 36  2  0
 35 37  1  0
 37 38  1  0
 38 39  2  0
 39 40  1  0
 40 41  2  0
 41 42  1  0
 42 43  2  0
 43 44  1  0
 44 45  2  0
 45 46  1  0
 46 47  2  0
 41 48  1  0
 48 49  2  0
 34 50  1  0
 50 51  2  0
 51 52  1  0
 52 53  2  0
 53 54  1  0
 54 55  2  0
 55 56  1  0
 55 57  1  0
 57 58  2  0
 57 59  1  0
  5 60  1  0
 60 61  2  0
 61  2  1  0
 10  6  1  0
 30 11  1  0
 51 31  1  0
 59 52  1  0
 22 18  1  0
 28 23  1  0
 49 38  1  0
 47 42  1  0
M  END
>  <Title>  (393) 
idAAPCgen7

$$$$

     RDKit          2D

 32 35  0  0  0  0  0  0  0  0999 V2000
   -7.5000   -7.7942    0.0000 C   0  0  0  0  0  0  0  0  0  0  0  0
   -8.2500   -6.4952    0.0000 O   0  0  0  0  0  0  0  0  0  0  0  0
   -7.5000   -5.1962    0.0000 C   0  0  0  0  0  0  0  0  0  0  0  0
   -6.0000   -5.1962    0.0000 C   0  0  0  0  0  0  0  0  0  0  0  0
   -5.2500   -3.8971    0.0000 C   0  0  0  0  0  0  0  0  0  0  0  0
   -6.0000   -2.5981    0.0000 C   0  0  0  0  0  0  0  0  0  0  0  0
   -5.2500   -1.2990    0.0000 C   0  0  0  0  0  0  0  0  0  0  0  0
   -6.0000    0.0000    0.0000 C   0  0  0  0  0  0  0  0  0  0  0  0
   -7.5000    0.0000    0.0000 O   0  0  0  0  0  0  0  0  0  0  0  0
   -5.2500    1.2990    0.0000 N   0  0  0  0  0  0  0  0  0  0  0  0
   -6.0000    2.5981    0.0000 C   0  0  0  0  0  0  0  0  0  0  0  0
   -7.4918    2.7549    0.0000 N   0  0  0  0  0  0  0  0  0  0  0  0
   -7.8037    4.2221    0.0000 C   0  0  0  0  0  0  0  0  0  0  0  0
   -6.5046    4.9721    0.0000 N   0  0  0  0  0  0  0  0  0  0  0  0
   -5.3899    3.9684    0.0000 N   0  0  0  0  0  0  0  0  0  0  0  0
   -3.9227    4.2803    0.0000 C   0  0  0  0  0  0  0  0  0  0  0  0
   -2.9190    3.1655    0.0000 C   0  0  0  0  0  0  0  0  0  0  0  0
   -1.4518    3.4774    0.0000 C   0  0  0  0  0  0  0  0  0  0  0  0
   -0.9882    4.9040    0.0000 C   0  0  0  0  0  0  0  0  0  0  0  0
    0.4790    5.2159    0.0000 C   0  0  0  0  0  0  0  0  0  0  0  0
    1.4827    4.1011    0.0000 O   0  0  0  0  0  0  0  0  0  0  0  0
    0.9425    6.6424    0.0000 N   0  0  0  0  0  0  0  0  0  0  0  0
    2.4097    6.9543    0.0000 C   0  0  0  0  0  0  0  0  0  0  0  0
    3.4134    5.8396    0.0000 C   0  0  0  0  0  0  0  0  0  0  0  0
    4.8807    6.1515    0.0000 C   0  0  0  0  0  0  0  0  0  0  0  0
    5.3442    7.5781    0.0000 C   0  0  0  0  0  0  0  0  0  0  0  0
    4.3405    8.6928    0.0000 C   0  0  0  0  0  0  0  0  0  0  0  0
    2.8733    8.3809    0.0000 C   0  0  0  0  0  0  0  0  0  0  0  0
   -1.9919    6.0187    0.0000 C   0  0  0  0  0  0  0  0  0  0  0  0
   -3.4591    5.7068    0.0000 C   0  0  0  0  0  0  0  0  0  0  0  0
   -7.5000   -2.5981    0.0000 N   0  0  0  0  0  0  0  0  0  0  0  0
   -8.2500   -3.8971    0.0000 C   0  0  0  0  0  0  0  0  0  0  0  0
  1  2  1  0
  2  3  1  0
  3  4  2  0
  4  5  1  0
  5  6  2  0
  6  7  1  0
  7  8  1  0
  8  9  2  0
  8 10  1  0
 10 11  1  0
 11 12  2  0
 12 13  1  0
 13 14  2  0
 14 15  1  0
 15 16  1  0
 16 17  2  0
 17 18  1  0
 18 19  2  0
 19 20  1  0
 20 21  2  0
 20 22  1  0
 22 23  1  0
 23 24  2  0
 24 25  1  0
 25 26  2  0
 26 27  1  0
 27 28  2  0
 19 29  1  0
 29 30  2  0
  6 31  1  0
 31 32  2  0
 32  3  1  0
 15 11  1  0
 30 16  1  0
 28 23  1  0
M  END
>  <Title>  (394) 
idAAPDgen7

$$$$

     RDKit          2D

  8  8  0  0  0  0  0  0  0  0999 V2000
    3.7500   -1.2990    0.0000 C   0  0  0  0  0  0  0  0  0  0  0  0
    3.0000    0.0000    0.0000 C   0  0  0  0  0  0  0  0  0  0  0  0
    1.5000    0.0000    0.0000 C   0  0  0  0  0  0  0  0  0  0  0  0
    0.7500   -1.2990    0.0000 C   0  0  0  0  0  0  0  0  0  0  0  0
   -0.7500   -1.2990    0.0000 C   0  0  0  0  0  0  0  0  0  0  0  0
   -1.5000    0.0000    0.0000 C   0  0  0  0  0  0  0  0  0  0  0  0
   -0.7500    1.2990    0.0000 C   0  0  0  0  0  0  0  0  0  0  0  0
    0.7500    1.2990    0.0000 C   0  0  0  0  0  0  0  0  0  0  0  0
  1  2  1  0
  2  3  1  0
  3  4  1  0
  4  5  1  0
  5  6  1  0
  6  7  1  0
  7  8  1  0
  8  3  1  0
M  END
>  <Title>  (395) 
idAAPEgen7

$$$$

     RDKit          2D

 37 42  0  0  0  0  0  0  0  0999 V2000
    3.0000    0.0000    0.0000 C   0  0  0  0  0  0  0  0  0  0  0  0
    1.5000    0.0000    0.0000 C   0  0  0  0  0  0  0  0  0  0  0  0
    0.7500    1.2990    0.0000 C   0  0  0  0  0  0  0  0  0  0  0  0
   -0.7500    1.2990    0.0000 C   0  0  0  0  0  0  0  0  0  0  0  0
   -1.5000    0.0000    0.0000 C   0  0  0  0  0  0  0  0  0  0  0  0
   -3.0000    0.0000    0.0000 C   0  0  0  0  0  0  0  0  0  0  0  0
   -3.8817   -1.2135    0.0000 N   0  0  0  0  0  0  0  0  0  0  0  0
   -5.3083   -0.7500    0.0000 N   0  0  0  0  0  0  0  0  0  0  0  0
   -5.3083    0.7500    0.0000 N   0  0  0  0  0  0  0  0  0  0  0  0
   -3.8817    1.2135    0.0000 N   0  0  0  0  0  0  0  0  0  0  0  0
   -3.4182    2.6401    0.0000 C   0  0  0  0  0  0  0  0  0  0  0  0
   -1.9509    2.9520    0.0000 C   0  0  0  0  0  0  0  0  0  0  0  0
   -1.4874    4.3786    0.0000 C   0  0  0  0  0  0  0  0  0  0  0  0
   -2.4911    5.4933    0.0000 C   0  0  0  0  0  0  0  0  0  0  0  0
   -3.9583    5.1814    0.0000 C   0  0  0  0  0  0  0  0  0  0  0  0
   -4.4218    3.7548    0.0000 C   0  0  0  0  0  0  0  0  0  0  0  0
   -5.8891    3.4430    0.0000 N   0  0  0  0  0  0  0  0  0  0  0  0
   -6.3526    2.0164    0.0000 N   0  0  0  0  0  0  0  0  0  0  0  0
   -7.8198    1.7045    0.0000 N   0  0  0  0  0  0  0  0  0  0  0  0
   -8.8235    2.8192    0.0000 N   0  0  0  0  0  0  0  0  0  0  0  0
   -8.3600    4.2458    0.0000 N   0  0  0  0  0  0  0  0  0  0  0  0
   -6.8928    4.5577    0.0000 N   0  0  0  0  0  0  0  0  0  0  0  0
   -6.4292    5.9843    0.0000 C   0  0  0  0  0  0  0  0  0  0  0  0
   -7.4329    7.0990    0.0000 C   0  0  0  0  0  0  0  0  0  0  0  0
   -6.9694    8.5256    0.0000 C   0  0  0  0  0  0  0  0  0  0  0  0
   -5.5022    8.8374    0.0000 C   0  0  0  0  0  0  0  0  0  0  0  0
   -5.0387   10.2640    0.0000 C   0  0  0  0  0  0  0  0  0  0  0  0
   -6.0424   11.3787    0.0000 C   0  0  0  0  0  0  0  0  0  0  0  0
   -5.5788   12.8053    0.0000 C   0  0  0  0  0  0  0  0  0  0  0  0
   -4.1116   13.1172    0.0000 C   0  0  0  0  0  0  0  0  0  0  0  0
   -3.1079   12.0025    0.0000 C   0  0  0  0  0  0  0  0  0  0  0  0
   -3.5714   10.5759    0.0000 C   0  0  0  0  0  0  0  0  0  0  0  0
   -4.4985    7.7227    0.0000 C   0  0  0  0  0  0  0  0  0  0  0  0
   -4.9620    6.2961    0.0000 C   0  0  0  0  0  0  0  0  0  0  0  0
   -0.7500   -1.2990    0.0000 C   0  0  0  0  0  0  0  0  0  0  0  0
   -1.5000   -2.5981    0.0000 O   0  0  0  0  0  0  0  0  0  0  0  0
    0.7500   -1.2990    0.0000 N   0  0  0  0  0  0  0  0  0  0  0  0
  1  2  1  0
  2  3  2  0
  3  4  1  0
  4  5  2  0
  5  6  1  0
  6  7  2  0
  7  8  1  0
  8  9  2  0
  9 10  1  0
 10 11  1  0
 11 12  2  0
 12 13  1  0
 13 14  2  0
 14 15  1  0
 15 16  2  0
 16 17  1  0
 17 18  1  0
 18 19  2  0
 19 20  1  0
 20 21  2  0
 21 22  1  0
 22 23  1  0
 23 24  2  0
 24 25  1  0
 25 26  2  0
 26 27  1  0
 27 28  2  0
 28 29  1  0
 29 30  2  0
 30 31  1  0
 31 32  2  0
 26 33  1  0
 33 34  1  0
  5 35  1  0
 35 36  2  0
 35 37  1  0
 37  2  1  0
 10  6  1  0
 16 11  1  0
 22 17  1  0
 34 23  1  0
 32 27  1  0
M  END
>  <Title>  (396) 
idAAPFgen7

$$$$

     RDKit          2D

 29 32  0  0  0  0  0  0  0  0999 V2000
    3.0000    0.0000    0.0000 C   0  0  0  0  0  0  0  0  0  0  0  0
    1.5000    0.0000    0.0000 C   0  0  0  0  0  0  0  0  0  0  0  0
    0.7500   -1.2990    0.0000 C   0  0  0  0  0  0  0  0  0  0  0  0
   -0.7500   -1.2990    0.0000 C   0  0  0  0  0  0  0  0  0  0  0  0
   -1.5000    0.0000    0.0000 C   0  0  0  0  0  0  0  0  0  0  0  0
   -3.0000    0.0000    0.0000 C   0  0  0  0  0  0  0  0  0  0  0  0
   -3.8817   -1.2135    0.0000 N   0  0  0  0  0  0  0  0  0  0  0  0
   -5.3083   -0.7500    0.0000 N   0  0  0  0  0  0  0  0  0  0  0  0
   -5.3083    0.7500    0.0000 N   0  0  0  0  0  0  0  0  0  0  0  0
   -3.8817    1.2135    0.0000 N   0  0  0  0  0  0  0  0  0  0  0  0
   -3.4182    2.6401    0.0000 C   0  0  0  0  0  0  0  0  0  0  0  0
   -1.9509    2.9520    0.0000 C   0  0  0  0  0  0  0  0  0  0  0  0
   -1.4874    4.3786    0.0000 C   0  0  0  0  0  0  0  0  0  0  0  0
   -2.4911    5.4933    0.0000 C   0  0  0  0  0  0  0  0  0  0  0  0
   -2.0276    6.9199    0.0000 C   0  0  0  0  0  0  0  0  0  0  0  0
   -3.0313    8.0346    0.0000 O   0  0  0  0  0  0  0  0  0  0  0  0
   -0.5604    7.2317    0.0000 N   0  0  0  0  0  0  0  0  0  0  0  0
   -0.0968    8.6583    0.0000 C   0  0  0  0  0  0  0  0  0  0  0  0
   -1.1005    9.7730    0.0000 O   0  0  0  0  0  0  0  0  0  0  0  0
    1.3704    8.9702    0.0000 C   0  0  0  0  0  0  0  0  0  0  0  0
    2.3741    7.8555    0.0000 C   0  0  0  0  0  0  0  0  0  0  0  0
    3.8413    8.1673    0.0000 C   0  0  0  0  0  0  0  0  0  0  0  0
    4.3048    9.5939    0.0000 C   0  0  0  0  0  0  0  0  0  0  0  0
    3.3011   10.7086    0.0000 C   0  0  0  0  0  0  0  0  0  0  0  0
    1.8339   10.3968    0.0000 C   0  0  0  0  0  0  0  0  0  0  0  0
   -3.9583    5.1814    0.0000 C   0  0  0  0  0  0  0  0  0  0  0  0
   -4.4218    3.7548    0.0000 C   0  0  0  0  0  0  0  0  0  0  0  0
   -0.7500    1.2990    0.0000 N   0  0  0  0  0  0  0  0  0  0  0  0
    0.7500    1.2990    0.0000 N   0  0  0  0  0  0  0  0  0  0  0  0
  1  2  1  0
  2  3  2  0
  3  4  1  0
  4  5  2  0
  5  6  1  0
  6  7  2  0
  7  8  1  0
  8  9  2  0
  9 10  1  0
 10 11  1  0
 11 12  2  0
 12 13  1  0
 13 14  2  0
 14 15  1  0
 15 16  2  0
 15 17  1  0
 17 18  1  0
 18 19  2  0
 18 20  1  0
 20 21  2  0
 21 22  1  0
 22 23  2  0
 23 24  1  0
 24 25  2  0
 14 26  1  0
 26 27  2  0
  5 28  1  0
 28 29  2  0
 29  2  1  0
 10  6  1  0
 27 11  1  0
 25 20  1  0
M  END
>  <Title>  (397) 
idAAPGgen7

$$$$

     RDKit          2D

 30 34  0  0  0  0  0  0  0  0999 V2000
  -11.5327    3.6666    0.0000 C   0  0  0  0  0  0  0  0  0  0  0  0
  -10.1624    4.2767    0.0000 O   0  0  0  0  0  0  0  0  0  0  0  0
   -8.9488    3.3950    0.0000 C   0  0  0  0  0  0  0  0  0  0  0  0
   -9.1056    1.9033    0.0000 C   0  0  0  0  0  0  0  0  0  0  0  0
   -7.8921    1.0216    0.0000 C   0  0  0  0  0  0  0  0  0  0  0  0
   -6.5218    1.6317    0.0000 C   0  0  0  0  0  0  0  0  0  0  0  0
   -5.3083    0.7500    0.0000 C   0  0  0  0  0  0  0  0  0  0  0  0
   -5.3083   -0.7500    0.0000 N   0  0  0  0  0  0  0  0  0  0  0  0
   -3.8817   -1.2135    0.0000 N   0  0  0  0  0  0  0  0  0  0  0  0
   -3.0000    0.0000    0.0000 N   0  0  0  0  0  0  0  0  0  0  0  0
   -3.8817    1.2135    0.0000 N   0  0  0  0  0  0  0  0  0  0  0  0
   -3.4182    2.6401    0.0000 C   0  0  0  0  0  0  0  0  0  0  0  0
   -4.2998    3.8536    0.0000 C   0  0  0  0  0  0  0  0  0  0  0  0
   -3.4182    5.0672    0.0000 C   0  0  0  0  0  0  0  0  0  0  0  0
   -1.9916    4.6036    0.0000 C   0  0  0  0  0  0  0  0  0  0  0  0
   -0.7780    5.4853    0.0000 C   0  0  0  0  0  0  0  0  0  0  0  0
   -0.7780    6.9853    0.0000 N   0  0  0  0  0  0  0  0  0  0  0  0
    0.6485    7.4488    0.0000 N   0  0  0  0  0  0  0  0  0  0  0  0
    1.5302    6.2353    0.0000 N   0  0  0  0  0  0  0  0  0  0  0  0
    0.6485    5.0218    0.0000 N   0  0  0  0  0  0  0  0  0  0  0  0
    1.1121    3.5952    0.0000 C   0  0  0  0  0  0  0  0  0  0  0  0
    0.1084    2.4805    0.0000 C   0  0  0  0  0  0  0  0  0  0  0  0
    0.5719    1.0539    0.0000 C   0  0  0  0  0  0  0  0  0  0  0  0
    2.0391    0.7420    0.0000 C   0  0  0  0  0  0  0  0  0  0  0  0
    3.0428    1.8568    0.0000 C   0  0  0  0  0  0  0  0  0  0  0  0
    2.5793    3.2833    0.0000 C   0  0  0  0  0  0  0  0  0  0  0  0
   -1.9916    3.1036    0.0000 C   0  0  0  0  0  0  0  0  0  0  0  0
   -0.7780    2.2220    0.0000 O   0  0  0  0  0  0  0  0  0  0  0  0
   -6.3650    3.1235    0.0000 N   0  0  0  0  0  0  0  0  0  0  0  0
   -7.5785    4.0051    0.0000 C   0  0  0  0  0  0  0  0  0  0  0  0
  1  2  1  0
  2  3  1  0
  3  4  2  0
  4  5  1  0
  5  6  2  0
  6  7  1  0
  7  8  2  0
  8  9  1  0
  9 10  2  0
 10 11  1  0
 11 12  1  0
 12 13  2  0
 13 14  1  0
 14 15  2  0
 15 16  1  0
 16 17  2  0
 17 18  1  0
 18 19  2  0
 19 20  1  0
 20 21  1  0
 21 22  2  0
 22 23  1  0
 23 24  2  0
 24 25  1  0
 25 26  2  0
 15 27  1  0
 27 28  2  0
  6 29  1  0
 29 30  1  0
 30  3  1  0
 11  7  1  0
 27 12  1  0
 20 16  1  0
 26 21  1  0
M  END
>  <Title>  (398) 
idAAPHgen7

$$$$

     RDKit          2D

 21 21  0  0  0  0  0  0  0  0999 V2000
    6.5691   -1.2990    0.0000 C   0  0  0  0  0  0  0  0  0  0  0  0
    5.8191    0.0000    0.0000 O   0  0  0  0  0  0  0  0  0  0  0  0
    4.3191    0.0000    0.0000 C   0  0  0  0  0  0  0  0  0  0  0  0
    4.0586   -1.4772    0.0000 C   0  0  0  0  0  0  0  0  0  0  0  0
    3.3086   -2.7762    0.0000 C   0  0  0  0  0  0  0  0  0  0  0  0
    2.1595   -3.7404    0.0000 C   0  0  0  0  0  0  0  0  0  0  0  0
    0.7500   -4.2535    0.0000 C   0  0  0  0  0  0  0  0  0  0  0  0
   -0.7500   -4.2535    0.0000 C   0  0  0  0  0  0  0  0  0  0  0  0
   -2.1595   -3.7404    0.0000 C   0  0  0  0  0  0  0  0  0  0  0  0
   -3.3086   -2.7762    0.0000 C   0  0  0  0  0  0  0  0  0  0  0  0
   -4.0586   -1.4772    0.0000 C   0  0  0  0  0  0  0  0  0  0  0  0
   -4.3191    0.0000    0.0000 C   0  0  0  0  0  0  0  0  0  0  0  0
   -4.0586    1.4772    0.0000 C   0  0  0  0  0  0  0  0  0  0  0  0
   -3.3086    2.7762    0.0000 C   0  0  0  0  0  0  0  0  0  0  0  0
   -2.1595    3.7404    0.0000 C   0  0  0  0  0  0  0  0  0  0  0  0
   -0.7500    4.2535    0.0000 C   0  0  0  0  0  0  0  0  0  0  0  0
    0.7500    4.2535    0.0000 C   0  0  0  0  0  0  0  0  0  0  0  0
    2.1595    3.7404    0.0000 C   0  0  0  0  0  0  0  0  0  0  0  0
    3.3086    2.7762    0.0000 C   0  0  0  0  0  0  0  0  0  0  0  0
    4.0586    1.4772    0.0000 C   0  0  0  0  0  0  0  0  0  0  0  0
    5.4681    1.9902    0.0000 O   0  0  0  0  0  0  0  0  0  0  0  0
  1  2  1  0
  2  3  1  0
  3  4  2  0
  4  5  1  0
  5  6  2  0
  6  7  1  0
  7  8  2  0
  8  9  1  0
  9 10  2  0
 10 11  1  0
 11 12  2  0
 12 13  1  0
 13 14  2  0
 14 15  1  0
 15 16  2  0
 16 17  1  0
 17 18  2  0
 18 19  1  0
 19 20  2  0
 20 21  1  0
 20  3  1  0
M  END
>  <Title>  (399) 
idAAPIgen7

$$$$

     RDKit          2D

 22 24  0  0  0  0  0  0  0  0999 V2000
   -4.0035    6.0784    0.0000 C   0  0  0  0  0  0  0  0  0  0  0  0
   -2.5991    5.5513    0.0000 C   0  0  0  0  0  0  0  0  0  0  0  0
   -2.3534    4.0716    0.0000 C   0  0  0  0  0  0  0  0  0  0  0  0
   -0.9491    3.5445    0.0000 C   0  0  0  0  0  0  0  0  0  0  0  0
    0.2096    4.4972    0.0000 C   0  0  0  0  0  0  0  0  0  0  0  0
    1.6139    3.9701    0.0000 N   0  0  0  0  0  0  0  0  0  0  0  0
    2.8658    4.7965    0.0000 N   0  0  0  0  0  0  0  0  0  0  0  0
    4.0385    3.8613    0.0000 N   0  0  0  0  0  0  0  0  0  0  0  0
    3.5115    2.4569    0.0000 N   0  0  0  0  0  0  0  0  0  0  0  0
    2.0130    2.5242    0.0000 C   0  0  0  0  0  0  0  0  0  0  0  0
    1.0777    1.3515    0.0000 N   0  0  0  0  0  0  0  0  0  0  0  0
   -0.3846    1.6852    0.0000 C   0  0  0  0  0  0  0  0  0  0  0  0
   -1.5574    0.7500    0.0000 C   0  0  0  0  0  0  0  0  0  0  0  0
   -1.5574   -0.7500    0.0000 C   0  0  0  0  0  0  0  0  0  0  0  0
   -0.3846   -1.6852    0.0000 C   0  0  0  0  0  0  0  0  0  0  0  0
    1.0777   -1.3515    0.0000 C   0  0  0  0  0  0  0  0  0  0  0  0
    2.0130   -2.5242    0.0000 C   0  0  0  0  0  0  0  0  0  0  0  0
    1.7286    0.0000    0.0000 C   0  0  0  0  0  0  0  0  0  0  0  0
    3.2286    0.0000    0.0000 O   0  0  0  0  0  0  0  0  0  0  0  0
   -0.0362    5.9769    0.0000 N   0  0  0  0  0  0  0  0  0  0  0  0
   -1.4405    6.5040    0.0000 C   0  0  0  0  0  0  0  0  0  0  0  0
   -1.6862    7.9837    0.0000 O   0  0  0  0  0  0  0  0  0  0  0  0
  1  2  1  0
  2  3  2  0
  3  4  1  0
  4  5  2  0
  5  6  1  0
  6  7  1  0
  7  8  2  0
  8  9  1  0
  9 10  2  0
 10 11  1  0
 11 12  1  0
 12 13  1  0
 13 14  1  0
 14 15  1  0
 15 16  1  0
 16 17  1  0
 16 18  1  0
 18 19  2  0
  5 20  1  0
 20 21  1  0
 21 22  2  0
 21  2  1  0
 10  6  1  0
 18 11  1  0
M  END
>  <Title>  (400) 
idAAPJgen7

$$$$

     RDKit          2D

 38 43  0  0  0  0  0  0  0  0999 V2000
    0.2668    7.8541    0.0000 C   0  0  0  0  0  0  0  0  0  0  0  0
   -1.0323    7.1041    0.0000 O   0  0  0  0  0  0  0  0  0  0  0  0
   -1.0323    5.6041    0.0000 C   0  0  0  0  0  0  0  0  0  0  0  0
    0.3943    5.1406    0.0000 N   0  0  0  0  0  0  0  0  0  0  0  0
    1.2760    3.9271    0.0000 C   0  0  0  0  0  0  0  0  0  0  0  0
    1.2760    2.4271    0.0000 N   0  0  0  0  0  0  0  0  0  0  0  0
    0.3943    1.2135    0.0000 C   0  0  0  0  0  0  0  0  0  0  0  0
    1.2760    0.0000    0.0000 N   0  0  0  0  0  0  0  0  0  0  0  0
    0.3943   -1.2135    0.0000 C   0  0  0  0  0  0  0  0  0  0  0  0
   -1.0323   -0.7500    0.0000 N   0  0  0  0  0  0  0  0  0  0  0  0
   -1.0323    0.7500    0.0000 N   0  0  0  0  0  0  0  0  0  0  0  0
   -2.4589    1.2135    0.0000 C   0  0  0  0  0  0  0  0  0  0  0  0
   -3.3405    0.0000    0.0000 N   0  0  0  0  0  0  0  0  0  0  0  0
   -4.7671    0.4635    0.0000 N   0  0  0  0  0  0  0  0  0  0  0  0
   -4.7671    1.9635    0.0000 N   0  0  0  0  0  0  0  0  0  0  0  0
   -3.3405    2.4271    0.0000 N   0  0  0  0  0  0  0  0  0  0  0  0
   -3.3405    3.9271    0.0000 C   0  0  0  0  0  0  0  0  0  0  0  0
   -4.8323    4.0838    0.0000 C   0  0  0  0  0  0  0  0  0  0  0  0
   -5.4424    5.4542    0.0000 C   0  0  0  0  0  0  0  0  0  0  0  0
   -4.5608    6.6677    0.0000 C   0  0  0  0  0  0  0  0  0  0  0  0
   -5.1709    8.0380    0.0000 N   0  0  0  0  0  0  0  0  0  0  0  0
   -6.6381    8.3499    0.0000 N   0  0  0  0  0  0  0  0  0  0  0  0
   -6.7949    9.8417    0.0000 N   0  0  0  0  0  0  0  0  0  0  0  0
   -5.4246   10.4518    0.0000 N   0  0  0  0  0  0  0  0  0  0  0  0
   -4.4209    9.3370    0.0000 C   0  0  0  0  0  0  0  0  0  0  0  0
   -2.9291    9.4938    0.0000 C   0  0  0  0  0  0  0  0  0  0  0  0
   -2.3190   10.8642    0.0000 C   0  0  0  0  0  0  0  0  0  0  0  0
   -0.8272   11.0209    0.0000 C   0  0  0  0  0  0  0  0  0  0  0  0
    0.0545    9.8074    0.0000 C   0  0  0  0  0  0  0  0  0  0  0  0
    1.5463    9.9642    0.0000 C   0  0  0  0  0  0  0  0  0  0  0  0
    2.1564   11.3345    0.0000 C   0  0  0  0  0  0  0  0  0  0  0  0
    3.6482   11.4913    0.0000 C   0  0  0  0  0  0  0  0  0  0  0  0
    4.5298   10.2778    0.0000 C   0  0  0  0  0  0  0  0  0  0  0  0
    6.0216   10.4346    0.0000 O   0  0  0  0  0  0  0  0  0  0  0  0
    1.2747   12.5481    0.0000 C   0  0  0  0  0  0  0  0  0  0  0  0
   -0.2171   12.3913    0.0000 C   0  0  0  0  0  0  0  0  0  0  0  0
   -3.0690    6.5109    0.0000 C   0  0  0  0  0  0  0  0  0  0  0  0
   -2.4589    5.1406    0.0000 C   0  0  0  0  0  0  0  0  0  0  0  0
  1  2  1  0
  2  3  1  0
  3  4  2  0
  4  5  1  0
  5  6  2  0
  6  7  1  0
  7  8  2  0
  8  9  1  0
  9 10  2  0
 10 11  1  0
 11 12  1  0
 12 13  2  0
 13 14  1  0
 14 15  2  0
 15 16  1  0
 16 17  1  0
 17 18  2  0
 18 19  1  0
 19 20  2  0
 20 21  1  0
 21 22  1  0
 22 23  2  0
 23 24  1  0
 24 25  2  0
 25 26  1  0
 26 27  1  0
 27 28  1  0
 28 29  2  0
 29 30  1  0
 30 31  2  0
 31 32  1  0
 32 33  1  0
 33 34  1  0
 31 35  1  0
 35 36  2  0
 20 37  1  0
 37 38  2  0
 38  3  1  0
 11  7  1  0
 16 12  1  0
 38 17  1  0
 25 21  1  0
 36 28  1  0
M  END
>  <Title>  (401) 
idAAPKgen7

$$$$

     RDKit          2D

 22 24  0  0  0  0  0  0  0  0999 V2000
    3.0000    0.0000    0.0000 C   0  0  0  0  0  0  0  0  0  0  0  0
    1.5000    0.0000    0.0000 C   0  0  0  0  0  0  0  0  0  0  0  0
    0.7500   -1.2990    0.0000 C   0  0  0  0  0  0  0  0  0  0  0  0
   -0.7500   -1.2990    0.0000 C   0  0  0  0  0  0  0  0  0  0  0  0
   -1.5000    0.0000    0.0000 C   0  0  0  0  0  0  0  0  0  0  0  0
   -3.0000    0.0000    0.0000 C   0  0  0  0  0  0  0  0  0  0  0  0
   -3.8817   -1.2135    0.0000 N   0  0  0  0  0  0  0  0  0  0  0  0
   -5.3083   -0.7500    0.0000 N   0  0  0  0  0  0  0  0  0  0  0  0
   -5.3083    0.7500    0.0000 N   0  0  0  0  0  0  0  0  0  0  0  0
   -3.8817    1.2135    0.0000 N   0  0  0  0  0  0  0  0  0  0  0  0
   -3.4182    2.6401    0.0000 C   0  0  0  0  0  0  0  0  0  0  0  0
   -1.9509    2.9520    0.0000 C   0  0  0  0  0  0  0  0  0  0  0  0
   -1.4874    4.3786    0.0000 C   0  0  0  0  0  0  0  0  0  0  0  0
   -2.4911    5.4933    0.0000 C   0  0  0  0  0  0  0  0  0  0  0  0
   -2.0276    6.9199    0.0000 C   0  0  0  0  0  0  0  0  0  0  0  0
   -3.0313    8.0346    0.0000 O   0  0  0  0  0  0  0  0  0  0  0  0
   -0.5604    7.2317    0.0000 N   0  0  0  0  0  0  0  0  0  0  0  0
   -0.0968    8.6583    0.0000 O   0  0  0  0  0  0  0  0  0  0  0  0
   -3.9583    5.1814    0.0000 C   0  0  0  0  0  0  0  0  0  0  0  0
   -4.4218    3.7548    0.0000 C   0  0  0  0  0  0  0  0  0  0  0  0
   -0.7500    1.2990    0.0000 C   0  0  0  0  0  0  0  0  0  0  0  0
    0.7500    1.2990    0.0000 C   0  0  0  0  0  0  0  0  0  0  0  0
  1  2  1  0
  2  3  2  0
  3  4  1  0
  4  5  2  0
  5  6  1  0
  6  7  2  0
  7  8  1  0
  8  9  2  0
  9 10  1  0
 10 11  1  0
 11 12  2  0
 12 13  1  0
 13 14  2  0
 14 15  1  0
 15 16  2  0
 15 17  1  0
 17 18  1  0
 14 19  1  0
 19 20  1  0
  5 21  1  0
 21 22  1  0
 22  2  1  0
 10  6  1  0
 20 11  1  0
M  END
>  <Title>  (402) 
idAAPLgen7

$$$$

     RDKit          2D

 52 59  0  0  0  0  0  0  0  0999 V2000
    3.0000    0.0000    0.0000 C   0  0  0  0  0  0  0  0  0  0  0  0
    1.5000    0.0000    0.0000 C   0  0  0  0  0  0  0  0  0  0  0  0
    0.7500    1.2990    0.0000 C   0  0  0  0  0  0  0  0  0  0  0  0
   -0.7500    1.2990    0.0000 C   0  0  0  0  0  0  0  0  0  0  0  0
   -1.5000    0.0000    0.0000 C   0  0  0  0  0  0  0  0  0  0  0  0
   -3.0000    0.0000    0.0000 C   0  0  0  0  0  0  0  0  0  0  0  0
   -3.8817   -1.2135    0.0000 N   0  0  0  0  0  0  0  0  0  0  0  0
   -5.3083   -0.7500    0.0000 N   0  0  0  0  0  0  0  0  0  0  0  0
   -5.3083    0.7500    0.0000 N   0  0  0  0  0  0  0  0  0  0  0  0
   -3.8817    1.2135    0.0000 N   0  0  0  0  0  0  0  0  0  0  0  0
   -3.4182    2.6401    0.0000 C   0  0  0  0  0  0  0  0  0  0  0  0
   -1.9509    2.9520    0.0000 C   0  0  0  0  0  0  0  0  0  0  0  0
   -1.4874    4.3786    0.0000 C   0  0  0  0  0  0  0  0  0  0  0  0
   -2.4911    5.4933    0.0000 C   0  0  0  0  0  0  0  0  0  0  0  0
   -3.9583    5.1814    0.0000 C   0  0  0  0  0  0  0  0  0  0  0  0
   -4.4218    3.7548    0.0000 C   0  0  0  0  0  0  0  0  0  0  0  0
   -5.8891    3.4430    0.0000 N   0  0  0  0  0  0  0  0  0  0  0  0
   -6.4992    2.0726    0.0000 N   0  0  0  0  0  0  0  0  0  0  0  0
   -7.9910    2.2294    0.0000 N   0  0  0  0  0  0  0  0  0  0  0  0
   -8.3028    3.6967    0.0000 N   0  0  0  0  0  0  0  0  0  0  0  0
   -7.0038    4.4467    0.0000 C   0  0  0  0  0  0  0  0  0  0  0  0
   -6.8470    5.9384    0.0000 N   0  0  0  0  0  0  0  0  0  0  0  0
   -5.4767    6.5485    0.0000 N   0  0  0  0  0  0  0  0  0  0  0  0
   -5.3199    8.0403    0.0000 N   0  0  0  0  0  0  0  0  0  0  0  0
   -6.5334    8.9220    0.0000 N   0  0  0  0  0  0  0  0  0  0  0  0
   -7.9037    8.3119    0.0000 N   0  0  0  0  0  0  0  0  0  0  0  0
   -8.0605    6.8201    0.0000 N   0  0  0  0  0  0  0  0  0  0  0  0
   -9.4308    6.2100    0.0000 C   0  0  0  0  0  0  0  0  0  0  0  0
   -9.5876    4.7182    0.0000 C   0  0  0  0  0  0  0  0  0  0  0  0
  -10.9579    4.1081    0.0000 C   0  0  0  0  0  0  0  0  0  0  0  0
  -12.1715    4.9898    0.0000 C   0  0  0  0  0  0  0  0  0  0  0  0
  -13.5418    4.3797    0.0000 C   0  0  0  0  0  0  0  0  0  0  0  0
  -13.6986    2.8879    0.0000 C   0  0  0  0  0  0  0  0  0  0  0  0
  -15.0689    2.2778    0.0000 C   0  0  0  0  0  0  0  0  0  0  0  0
  -16.2824    3.1595    0.0000 C   0  0  0  0  0  0  0  0  0  0  0  0
  -16.1256    4.6513    0.0000 C   0  0  0  0  0  0  0  0  0  0  0  0
  -14.7553    5.2614    0.0000 C   0  0  0  0  0  0  0  0  0  0  0  0
  -12.0147    6.4816    0.0000 C   0  0  0  0  0  0  0  0  0  0  0  0
  -10.6444    7.0917    0.0000 C   0  0  0  0  0  0  0  0  0  0  0  0
  -10.4876    8.5835    0.0000 C   0  0  0  0  0  0  0  0  0  0  0  0
  -11.7011    9.4652    0.0000 C   0  0  0  0  0  0  0  0  0  0  0  0
  -11.5443   10.9569    0.0000 C   0  0  0  0  0  0  0  0  0  0  0  0
  -10.1740   11.5670    0.0000 C   0  0  0  0  0  0  0  0  0  0  0  0
  -10.0172   13.0588    0.0000 C   0  0  0  0  0  0  0  0  0  0  0  0
   -8.6469   13.6689    0.0000 O   0  0  0  0  0  0  0  0  0  0  0  0
  -11.2307   13.9405    0.0000 N   0  0  0  0  0  0  0  0  0  0  0  0
  -11.0739   15.4323    0.0000 O   0  0  0  0  0  0  0  0  0  0  0  0
   -8.9605   10.6854    0.0000 C   0  0  0  0  0  0  0  0  0  0  0  0
   -9.1173    9.1936    0.0000 C   0  0  0  0  0  0  0  0  0  0  0  0
   -0.7500   -1.2990    0.0000 C   0  0  0  0  0  0  0  0  0  0  0  0
   -1.5000   -2.5981    0.0000 O   0  0  0  0  0  0  0  0  0  0  0  0
    0.7500   -1.2990    0.0000 N   0  0  0  0  0  0  0  0  0  0  0  0
  1  2  1  0
  2  3  2  0
  3  4  1  0
  4  5  2  0
  5  6  1  0
  6  7  2  0
  7  8  1  0
  8  9  2  0
  9 10  1  0
 10 11  1  0
 11 12  2  0
 12 13  1  0
 13 14  2  0
 14 15  1  0
 15 16  2  0
 16 17  1  0
 17 18  1  0
 18 19  2  0
 19 20  1  0
 20 21  2  0
 21 22  1  0
 22 23  1  0
 23 24  2  0
 24 25  1  0
 25 26  2  0
 26 27  1  0
 27 28  1  0
 28 29  2  0
 29 30  1  0
 30 31  2  0
 31 32  1  0
 32 33  2  0
 33 34  1  0
 34 35  2  0
 35 36  1  0
 36 37  2  0
 31 38  1  0
 38 39  2  0
 39 40  1  0
 40 41  2  0
 41 42  1  0
 42 43  2  0
 43 44  1  0
 44 45  2  0
 44 46  1  0
 46 47  1  0
 43 48  1  0
 48 49  1  0
  5 50  1  0
 50 51  2  0
 50 52  1  0
 52  2  1  0
 10  6  1  0
 16 11  1  0
 21 17  1  0
 27 22  1  0
 39 28  1  0
 49 40  1  0
 37 32  1  0
M  END
>  <Title>  (403) 
idAAPMgen7

$$$$

     RDKit          2D

 34 38  0  0  0  0  0  0  0  0999 V2000
   -1.2266    5.2302    0.0000 C   0  0  0  0  0  0  0  0  0  0  0  0
    0.1437    4.6201    0.0000 C   0  0  0  0  0  0  0  0  0  0  0  0
    0.4556    3.1529    0.0000 C   0  0  0  0  0  0  0  0  0  0  0  0
    1.9474    2.9961    0.0000 C   0  0  0  0  0  0  0  0  0  0  0  0
    2.5575    4.3664    0.0000 C   0  0  0  0  0  0  0  0  0  0  0  0
    4.0247    4.6782    0.0000 C   0  0  0  0  0  0  0  0  0  0  0  0
    4.4883    6.1048    0.0000 O   0  0  0  0  0  0  0  0  0  0  0  0
    5.0284    3.5635    0.0000 N   0  0  0  0  0  0  0  0  0  0  0  0
    6.4956    3.8754    0.0000 C   0  0  0  0  0  0  0  0  0  0  0  0
    7.1057    5.2457    0.0000 N   0  0  0  0  0  0  0  0  0  0  0  0
    8.5975    5.0889    0.0000 N   0  0  0  0  0  0  0  0  0  0  0  0
    8.9094    3.6217    0.0000 N   0  0  0  0  0  0  0  0  0  0  0  0
    7.6104    2.8717    0.0000 N   0  0  0  0  0  0  0  0  0  0  0  0
    7.4536    1.3799    0.0000 C   0  0  0  0  0  0  0  0  0  0  0  0
    8.5683    0.3762    0.0000 C   0  0  0  0  0  0  0  0  0  0  0  0
    7.9582   -0.9941    0.0000 C   0  0  0  0  0  0  0  0  0  0  0  0
    6.4664   -0.8373    0.0000 C   0  0  0  0  0  0  0  0  0  0  0  0
    5.4627   -1.9520    0.0000 C   0  0  0  0  0  0  0  0  0  0  0  0
    5.9262   -3.3786    0.0000 O   0  0  0  0  0  0  0  0  0  0  0  0
    3.9955   -1.6402    0.0000 N   0  0  0  0  0  0  0  0  0  0  0  0
    2.9918   -2.7549    0.0000 C   0  0  0  0  0  0  0  0  0  0  0  0
    3.3037   -4.2221    0.0000 N   0  0  0  0  0  0  0  0  0  0  0  0
    2.0046   -4.9721    0.0000 N   0  0  0  0  0  0  0  0  0  0  0  0
    0.8899   -3.9684    0.0000 N   0  0  0  0  0  0  0  0  0  0  0  0
    1.5000   -2.5981    0.0000 N   0  0  0  0  0  0  0  0  0  0  0  0
    0.7500   -1.2990    0.0000 C   0  0  0  0  0  0  0  0  0  0  0  0
    1.5000    0.0000    0.0000 C   0  0  0  0  0  0  0  0  0  0  0  0
    0.7500    1.2990    0.0000 C   0  0  0  0  0  0  0  0  0  0  0  0
   -0.7500    1.2990    0.0000 C   0  0  0  0  0  0  0  0  0  0  0  0
   -1.5000    0.0000    0.0000 C   0  0  0  0  0  0  0  0  0  0  0  0
   -0.7500   -1.2990    0.0000 C   0  0  0  0  0  0  0  0  0  0  0  0
    6.1545    0.6299    0.0000 C   0  0  0  0  0  0  0  0  0  0  0  0
    4.7842    1.2400    0.0000 O   0  0  0  0  0  0  0  0  0  0  0  0
    1.4428    5.3701    0.0000 C   0  0  0  0  0  0  0  0  0  0  0  0
  1  2  1  0
  2  3  2  0
  3  4  1  0
  4  5  2  0
  5  6  1  0
  6  7  2  0
  6  8  1  0
  8  9  1  0
  9 10  2  0
 10 11  1  0
 11 12  2  0
 12 13  1  0
 13 14  1  0
 14 15  2  0
 15 16  1  0
 16 17  2  0
 17 18  1  0
 18 19  2  0
 18 20  1  0
 20 21  1  0
 21 22  2  0
 22 23  1  0
 23 24  2  0
 24 25  1  0
 25 26  1  0
 26 27  2  0
 27 28  1  0
 28 29  2  0
 29 30  1  0
 30 31  2  0
 17 32  1  0
 32 33  2  0
  5 34  1  0
 34  2  1  0
 13  9  1  0
 32 14  1  0
 25 21  1  0
 31 26  1  0
M  END
>  <Title>  (404) 
idAAPNgen7

$$$$

     RDKit          2D

 27 31  0  0  0  0  0  0  0  0999 V2000
   -7.0066   -1.7040    0.0000 C   0  0  0  0  0  0  0  0  0  0  0  0
   -6.0029   -0.5893    0.0000 C   0  0  0  0  0  0  0  0  0  0  0  0
   -6.4664    0.8373    0.0000 C   0  0  0  0  0  0  0  0  0  0  0  0
   -5.4627    1.9520    0.0000 C   0  0  0  0  0  0  0  0  0  0  0  0
   -3.9955    1.6402    0.0000 C   0  0  0  0  0  0  0  0  0  0  0  0
   -2.9918    2.7549    0.0000 C   0  0  0  0  0  0  0  0  0  0  0  0
   -3.3037    4.2221    0.0000 N   0  0  0  0  0  0  0  0  0  0  0  0
   -2.0046    4.9721    0.0000 N   0  0  0  0  0  0  0  0  0  0  0  0
   -0.8899    3.9684    0.0000 N   0  0  0  0  0  0  0  0  0  0  0  0
   -1.5000    2.5981    0.0000 N   0  0  0  0  0  0  0  0  0  0  0  0
   -0.7500    1.2990    0.0000 C   0  0  0  0  0  0  0  0  0  0  0  0
   -1.5000    0.0000    0.0000 C   0  0  0  0  0  0  0  0  0  0  0  0
   -0.7500   -1.2990    0.0000 C   0  0  0  0  0  0  0  0  0  0  0  0
    0.7500   -1.2990    0.0000 C   0  0  0  0  0  0  0  0  0  0  0  0
    1.5000    0.0000    0.0000 C   0  0  0  0  0  0  0  0  0  0  0  0
    0.7500    1.2990    0.0000 C   0  0  0  0  0  0  0  0  0  0  0  0
   -0.0511    0.3882    0.0000 C   0  0  0  0  0  0  0  0  0  0  0  0
    0.6989    1.6873    0.0000 C   0  0  0  0  0  0  0  0  0  0  0  0
    2.1989    1.6873    0.0000 C   0  0  0  0  0  0  0  0  0  0  0  0
    2.9489    2.9863    0.0000 C   0  0  0  0  0  0  0  0  0  0  0  0
    2.3388    4.3566    0.0000 C   0  0  0  0  0  0  0  0  0  0  0  0
    3.4535    5.3603    0.0000 C   0  0  0  0  0  0  0  0  0  0  0  0
    4.7525    4.6103    0.0000 C   0  0  0  0  0  0  0  0  0  0  0  0
    4.4407    3.1431    0.0000 C   0  0  0  0  0  0  0  0  0  0  0  0
   -3.5320    0.2136    0.0000 C   0  0  0  0  0  0  0  0  0  0  0  0
   -2.1838   -0.4441    0.0000 O   0  0  0  0  0  0  0  0  0  0  0  0
   -4.5356   -0.9012    0.0000 N   0  0  0  0  0  0  0  0  0  0  0  0
  1  2  1  0
  2  3  2  0
  3  4  1  0
  4  5  2  0
  5  6  1  0
  6  7  2  0
  7  8  1  0
  8  9  2  0
  9 10  1  0
 10 11  1  0
 11 12  1  0
 12 13  2  0
 13 14  1  0
 14 15  2  0
 15 16  1  0
 14 17  1  0
 17 18  2  3
 18 19  1  0
 19 20  2  3
 20 21  1  0
 21 22  2  0
 22 23  1  0
 23 24  2  0
  5 25  1  0
 25 26  2  0
 25 27  1  0
 27  2  1  0
 10  6  1  0
 16 11  2  0
 24 20  1  0
 17 12  1  0
M  END
>  <Title>  (405) 
idAAPOgen7

$$$$

     RDKit          2D

 31 35  0  0  0  0  0  0  0  0999 V2000
    3.0000    0.0000    0.0000 C   0  0  0  0  0  0  0  0  0  0  0  0
    1.5000    0.0000    0.0000 C   0  0  0  0  0  0  0  0  0  0  0  0
    0.7500    1.2990    0.0000 C   0  0  0  0  0  0  0  0  0  0  0  0
   -0.7500    1.2990    0.0000 C   0  0  0  0  0  0  0  0  0  0  0  0
   -1.5000    0.0000    0.0000 C   0  0  0  0  0  0  0  0  0  0  0  0
   -3.0000    0.0000    0.0000 N   0  0  0  0  0  0  0  0  0  0  0  0
   -3.8817   -1.2135    0.0000 N   0  0  0  0  0  0  0  0  0  0  0  0
   -5.3083   -0.7500    0.0000 N   0  0  0  0  0  0  0  0  0  0  0  0
   -5.3083    0.7500    0.0000 N   0  0  0  0  0  0  0  0  0  0  0  0
   -3.8817    1.2135    0.0000 C   0  0  0  0  0  0  0  0  0  0  0  0
   -3.4182    2.6401    0.0000 C   0  0  0  0  0  0  0  0  0  0  0  0
   -4.2998    3.8536    0.0000 C   0  0  0  0  0  0  0  0  0  0  0  0
   -3.4182    5.0672    0.0000 C   0  0  0  0  0  0  0  0  0  0  0  0
   -1.9916    4.6036    0.0000 C   0  0  0  0  0  0  0  0  0  0  0  0
   -0.7780    5.4853    0.0000 C   0  0  0  0  0  0  0  0  0  0  0  0
    0.5923    4.8752    0.0000 C   0  0  0  0  0  0  0  0  0  0  0  0
    1.8058    5.7569    0.0000 C   0  0  0  0  0  0  0  0  0  0  0  0
    1.6490    7.2487    0.0000 C   0  0  0  0  0  0  0  0  0  0  0  0
    2.8625    8.1303    0.0000 C   0  0  0  0  0  0  0  0  0  0  0  0
    4.2329    7.5202    0.0000 C   0  0  0  0  0  0  0  0  0  0  0  0
    5.4464    8.4019    0.0000 C   0  0  0  0  0  0  0  0  0  0  0  0
    5.2896    9.8937    0.0000 C   0  0  0  0  0  0  0  0  0  0  0  0
    3.9193   10.5038    0.0000 C   0  0  0  0  0  0  0  0  0  0  0  0
    2.7057    9.6221    0.0000 C   0  0  0  0  0  0  0  0  0  0  0  0
    0.2787    7.8588    0.0000 C   0  0  0  0  0  0  0  0  0  0  0  0
   -0.9348    6.9771    0.0000 C   0  0  0  0  0  0  0  0  0  0  0  0
   -1.9916    3.1036    0.0000 C   0  0  0  0  0  0  0  0  0  0  0  0
   -0.7780    2.2220    0.0000 O   0  0  0  0  0  0  0  0  0  0  0  0
   -0.7500   -1.2990    0.0000 C   0  0  0  0  0  0  0  0  0  0  0  0
   -1.5000   -2.5981    0.0000 O   0  0  0  0  0  0  0  0  0  0  0  0
    0.7500   -1.2990    0.0000 N   0  0  0  0  0  0  0  0  0  0  0  0
  1  2  1  0
  2  3  2  0
  3  4  1  0
  4  5  2  0
  5  6  1  0
  6  7  1  0
  7  8  2  0
  8  9  1  0
  9 10  2  0
 10 11  1  0
 11 12  2  0
 12 13  1  0
 13 14  2  0
 14 15  1  0
 15 16  2  0
 16 17  1  0
 17 18  2  0
 18 19  1  0
 19 20  2  0
 20 21  1  0
 21 22  2  0
 22 23  1  0
 23 24  2  0
 18 25  1  0
 25 26  2  0
 14 27  1  0
 27 28  2  0
  5 29  1  0
 29 30  2  0
 29 31  1  0
 31  2  1  0
 10  6  1  0
 27 11  1  0
 26 15  1  0
 24 19  1  0
M  END
>  <Title>  (406) 
idAAPPgen7

$$$$

     RDKit          2D

 51 54  0  0  0  0  0  0  0  0999 V2000
   -0.0851  -11.3002    0.0000 C   0  0  0  0  0  0  0  0  0  0  0  0
    1.0426  -10.3112    0.0000 O   0  0  0  0  0  0  0  0  0  0  0  0
    0.7500   -8.8400    0.0000 C   0  0  0  0  0  0  0  0  0  0  0  0
   -0.7500   -8.8400    0.0000 C   0  0  0  0  0  0  0  0  0  0  0  0
   -2.1358   -8.2660    0.0000 C   0  0  0  0  0  0  0  0  0  0  0  0
   -3.1965   -7.2054    0.0000 C   0  0  0  0  0  0  0  0  0  0  0  0
   -3.6561   -8.6332    0.0000 C   0  0  0  0  0  0  0  0  0  0  0  0
   -3.7981  -10.1265    0.0000 C   0  0  0  0  0  0  0  0  0  0  0  0
   -3.6158  -11.6153    0.0000 C   0  0  0  0  0  0  0  0  0  0  0  0
   -3.1176  -13.0302    0.0000 C   0  0  0  0  0  0  0  0  0  0  0  0
   -2.3269  -14.3049    0.0000 C   0  0  0  0  0  0  0  0  0  0  0  0
   -1.2807  -15.3798    0.0000 C   0  0  0  0  0  0  0  0  0  0  0  0
   -0.0279  -16.2047    0.0000 C   0  0  0  0  0  0  0  0  0  0  0  0
    1.3729  -16.7410    0.0000 C   0  0  0  0  0  0  0  0  0  0  0  0
    2.8563  -16.9636    0.0000 C   0  0  0  0  0  0  0  0  0  0  0  0
    4.3529  -16.8621    0.0000 C   0  0  0  0  0  0  0  0  0  0  0  0
    5.7927  -16.4413    0.0000 C   0  0  0  0  0  0  0  0  0  0  0  0
    7.1083  -15.7208    0.0000 C   0  0  0  0  0  0  0  0  0  0  0  0
    8.2383  -14.7343    0.0000 C   0  0  0  0  0  0  0  0  0  0  0  0
    9.1298  -13.5280    0.0000 C   0  0  0  0  0  0  0  0  0  0  0  0
    9.7411  -12.1582    0.0000 C   0  0  0  0  0  0  0  0  0  0  0  0
   10.0437  -10.6891    0.0000 C   0  0  0  0  0  0  0  0  0  0  0  0
   10.0234   -9.1892    0.0000 C   0  0  0  0  0  0  0  0  0  0  0  0
    9.6811   -7.7288    0.0000 C   0  0  0  0  0  0  0  0  0  0  0  0
    9.0329   -6.3761    0.0000 C   0  0  0  0  0  0  0  0  0  0  0  0
    8.1091   -5.1943    0.0000 C   0  0  0  0  0  0  0  0  0  0  0  0
    6.9528   -4.2388    0.0000 C   0  0  0  0  0  0  0  0  0  0  0  0
    3.7705   -4.3195    0.0000 C   0  0  0  0  0  0  0  0  0  0  0  0
    3.7705   -5.8195    0.0000 C   0  0  0  0  0  0  0  0  0  0  0  0
    3.1965   -7.2054    0.0000 C   0  0  0  0  0  0  0  0  0  0  0  0
    2.1358   -8.2660    0.0000 C   0  0  0  0  0  0  0  0  0  0  0  0
    2.9692   -9.5132    0.0000 O   0  0  0  0  0  0  0  0  0  0  0  0
    3.1965   -2.9337    0.0000 N   0  0  0  0  0  0  0  0  0  0  0  0
    2.1358   -1.8731    0.0000 C   0  0  0  0  0  0  0  0  0  0  0  0
    2.9692   -0.6259    0.0000 O   0  0  0  0  0  0  0  0  0  0  0  0
    0.7500   -1.2990    0.0000 C   0  0  0  0  0  0  0  0  0  0  0  0
    1.5000    0.0000    0.0000 C   0  0  0  0  0  0  0  0  0  0  0  0
    0.7500    1.2990    0.0000 C   0  0  0  0  0  0  0  0  0  0  0  0
   -0.7500    1.2990    0.0000 C   0  0  0  0  0  0  0  0  0  0  0  0
   -1.5000    0.0000    0.0000 C   0  0  0  0  0  0  0  0  0  0  0  0
   -0.7500   -1.2990    0.0000 C   0  0  0  0  0  0  0  0  0  0  0  0
   -2.1358   -1.8731    0.0000 C   0  0  0  0  0  0  0  0  0  0  0  0
   -3.1965   -2.9337    0.0000 C   0  0  0  0  0  0  0  0  0  0  0  0
   -3.7705   -4.3195    0.0000 C   0  0  0  0  0  0  0  0  0  0  0  0
   -3.7705   -5.8195    0.0000 C   0  0  0  0  0  0  0  0  0  0  0  0
   -5.2417   -6.1122    0.0000 C   0  0  0  0  0  0  0  0  0  0  0  0
   -6.2307   -4.9844    0.0000 C   0  0  0  0  0  0  0  0  0  0  0  0
   -7.7019   -5.2771    0.0000 C   0  0  0  0  0  0  0  0  0  0  0  0
   -8.1840   -6.6974    0.0000 C   0  0  0  0  0  0  0  0  0  0  0  0
   -7.1950   -7.8252    0.0000 C   0  0  0  0  0  0  0  0  0  0  0  0
   -5.7238   -7.5326    0.0000 C   0  0  0  0  0  0  0  0  0  0  0  0
  1  2  1  0
  2  3  1  0
  3  4  2  0
  4  5  1  0
  5  6  2  0
  6  7  1  0
  7  8  2  0
  8  9  1  0
  9 10  2  0
 10 11  1  0
 11 12  2  0
 12 13  1  0
 13 14  2  0
 14 15  1  0
 15 16  2  0
 16 17  1  0
 17 18  2  0
 18 19  1  0
 19 20  2  0
 20 21  1  0
 21 22  2  0
 22 23  1  0
 23 24  2  0
 24 25  1  0
 25 26  2  0
 26 27  1  0
 27 28  2  0
 28 29  1  0
 29 30  1  0
 30 31  1  0
 31 32  2  0
 28 33  1  0
 33 34  1  0
 34 35  2  0
 34 36  1  0
 36 37  2  0
 37 38  1  0
 38 39  2  0
 39 40  1  0
 40 41  2  0
 41 42  1  0
 42 43  2  0
 43 44  1  0
 44 45  2  0
 45 46  1  0
 46 47  2  0
 47 48  1  0
 48 49  2  0
 49 50  1  0
 50 51  2  0
 31  3  1  0
 41 36  1  0
 51 46  1  0
 45  6  1  0
M  END
>  <Title>  (407) 
idAAPQgen7

$$$$

     RDKit          2D

 38 43  0  0  0  0  0  0  0  0999 V2000
   -6.0000   -5.1962    0.0000 C   0  0  0  0  0  0  0  0  0  0  0  0
   -5.2500   -3.8971    0.0000 C   0  0  0  0  0  0  0  0  0  0  0  0
   -6.0000   -2.5981    0.0000 C   0  0  0  0  0  0  0  0  0  0  0  0
   -5.2500   -1.2990    0.0000 C   0  0  0  0  0  0  0  0  0  0  0  0
   -3.7500   -1.2990    0.0000 C   0  0  0  0  0  0  0  0  0  0  0  0
   -3.0000    0.0000    0.0000 C   0  0  0  0  0  0  0  0  0  0  0  0
   -3.7500    1.2990    0.0000 C   0  0  0  0  0  0  0  0  0  0  0  0
   -5.2418    1.4558    0.0000 N   0  0  0  0  0  0  0  0  0  0  0  0
   -5.5537    2.9231    0.0000 N   0  0  0  0  0  0  0  0  0  0  0  0
   -4.2546    3.6731    0.0000 N   0  0  0  0  0  0  0  0  0  0  0  0
   -3.1399    2.6694    0.0000 N   0  0  0  0  0  0  0  0  0  0  0  0
   -1.6727    2.9812    0.0000 C   0  0  0  0  0  0  0  0  0  0  0  0
   -0.6690    1.8665    0.0000 C   0  0  0  0  0  0  0  0  0  0  0  0
    0.7982    2.1784    0.0000 C   0  0  0  0  0  0  0  0  0  0  0  0
    1.2618    3.6050    0.0000 C   0  0  0  0  0  0  0  0  0  0  0  0
    2.7290    3.9168    0.0000 C   0  0  0  0  0  0  0  0  0  0  0  0
    3.3391    5.2871    0.0000 N   0  0  0  0  0  0  0  0  0  0  0  0
    4.8309    5.1304    0.0000 N   0  0  0  0  0  0  0  0  0  0  0  0
    5.1427    3.6631    0.0000 N   0  0  0  0  0  0  0  0  0  0  0  0
    3.8437    2.9131    0.0000 N   0  0  0  0  0  0  0  0  0  0  0  0
    3.6869    1.4213    0.0000 C   0  0  0  0  0  0  0  0  0  0  0  0
    2.3166    0.8112    0.0000 C   0  0  0  0  0  0  0  0  0  0  0  0
    2.1598   -0.6805    0.0000 C   0  0  0  0  0  0  0  0  0  0  0  0
    3.3733   -1.5622    0.0000 C   0  0  0  0  0  0  0  0  0  0  0  0
    4.7436   -0.9521    0.0000 C   0  0  0  0  0  0  0  0  0  0  0  0
    4.9004    0.5397    0.0000 C   0  0  0  0  0  0  0  0  0  0  0  0
    0.2581    4.7197    0.0000 C   0  0  0  0  0  0  0  0  0  0  0  0
   -1.2091    4.4078    0.0000 C   0  0  0  0  0  0  0  0  0  0  0  0
   -2.2128    5.5225    0.0000 C   0  0  0  0  0  0  0  0  0  0  0  0
   -1.7493    6.9491    0.0000 C   0  0  0  0  0  0  0  0  0  0  0  0
   -2.7530    8.0638    0.0000 C   0  0  0  0  0  0  0  0  0  0  0  0
   -4.2202    7.7520    0.0000 C   0  0  0  0  0  0  0  0  0  0  0  0
   -5.2239    8.8667    0.0000 C   0  0  0  0  0  0  0  0  0  0  0  0
   -4.6838    6.3254    0.0000 C   0  0  0  0  0  0  0  0  0  0  0  0
   -6.1510    6.0135    0.0000 O   0  0  0  0  0  0  0  0  0  0  0  0
   -3.6801    5.2107    0.0000 N   0  0  0  0  0  0  0  0  0  0  0  0
   -3.0000   -2.5981    0.0000 N   0  0  0  0  0  0  0  0  0  0  0  0
   -3.7500   -3.8971    0.0000 C   0  0  0  0  0  0  0  0  0  0  0  0
  1  2  1  0
  2  3  2  0
  3  4  1  0
  4  5  2  0
  5  6  1  0
  6  7  1  0
  7  8  2  0
  8  9  1  0
  9 10  2  0
 10 11  1  0
 11 12  1  0
 12 13  2  0
 13 14  1  0
 14 15  2  0
 15 16  1  0
 16 17  2  0
 17 18  1  0
 18 19  2  0
 19 20  1  0
 20 21  1  0
 21 22  2  0
 22 23  1  0
 23 24  2  0
 24 25  1  0
 25 26  2  0
 15 27  1  0
 27 28  2  0
 28 29  1  0
 29 30  2  0
 30 31  1  0
 31 32  2  0
 32 33  1  0
 32 34  1  0
 34 35  2  0
 34 36  1  0
  5 37  1  0
 37 38  1  0
 38  2  1  0
 11  7  1  0
 28 12  1  0
 36 29  1  0
 20 16  1  0
 26 21  1  0
M  END
>  <Title>  (408) 
idAAPRgen7

$$$$

     RDKit          2D

 39 44  0  0  0  0  0  0  0  0999 V2000
    6.0029    0.5893    0.0000 O   0  0  0  0  0  0  0  0  0  0  0  0
    6.4664   -0.8373    0.0000 C   0  0  0  0  0  0  0  0  0  0  0  0
    5.4627   -1.9520    0.0000 C   0  0  0  0  0  0  0  0  0  0  0  0
    3.9955   -1.6402    0.0000 C   0  0  0  0  0  0  0  0  0  0  0  0
    2.9918   -2.7549    0.0000 C   0  0  0  0  0  0  0  0  0  0  0  0
    3.3037   -4.2221    0.0000 N   0  0  0  0  0  0  0  0  0  0  0  0
    2.0046   -4.9721    0.0000 N   0  0  0  0  0  0  0  0  0  0  0  0
    0.8899   -3.9684    0.0000 N   0  0  0  0  0  0  0  0  0  0  0  0
    1.5000   -2.5981    0.0000 N   0  0  0  0  0  0  0  0  0  0  0  0
    0.7500   -1.2990    0.0000 C   0  0  0  0  0  0  0  0  0  0  0  0
    1.5000    0.0000    0.0000 C   0  0  0  0  0  0  0  0  0  0  0  0
    0.7500    1.2990    0.0000 C   0  0  0  0  0  0  0  0  0  0  0  0
   -0.7500    1.2990    0.0000 C   0  0  0  0  0  0  0  0  0  0  0  0
   -1.5000    2.5981    0.0000 C   0  0  0  0  0  0  0  0  0  0  0  0
   -0.7500    3.8971    0.0000 C   0  0  0  0  0  0  0  0  0  0  0  0
   -1.5000    5.1962    0.0000 C   0  0  0  0  0  0  0  0  0  0  0  0
   -3.0000    5.1962    0.0000 C   0  0  0  0  0  0  0  0  0  0  0  0
   -3.7500    6.4952    0.0000 C   0  0  0  0  0  0  0  0  0  0  0  0
   -3.0000    7.7942    0.0000 C   0  0  0  0  0  0  0  0  0  0  0  0
   -3.7500    9.0933    0.0000 C   0  0  0  0  0  0  0  0  0  0  0  0
   -5.2500    9.0933    0.0000 C   0  0  0  0  0  0  0  0  0  0  0  0
   -6.0000    7.7942    0.0000 C   0  0  0  0  0  0  0  0  0  0  0  0
   -5.2500    6.4952    0.0000 C   0  0  0  0  0  0  0  0  0  0  0  0
   -3.7500    3.8971    0.0000 C   0  0  0  0  0  0  0  0  0  0  0  0
   -3.0000    2.5981    0.0000 C   0  0  0  0  0  0  0  0  0  0  0  0
   -1.5000    0.0000    0.0000 C   0  0  0  0  0  0  0  0  0  0  0  0
   -0.7500   -1.2990    0.0000 C   0  0  0  0  0  0  0  0  0  0  0  0
    7.9336   -1.1492    0.0000 N   0  0  0  0  0  0  0  0  0  0  0  0
    8.9373   -0.0345    0.0000 C   0  0  0  0  0  0  0  0  0  0  0  0
    8.6254    1.4328    0.0000 N   0  0  0  0  0  0  0  0  0  0  0  0
    9.9245    2.1828    0.0000 N   0  0  0  0  0  0  0  0  0  0  0  0
   11.0392    1.1791    0.0000 N   0  0  0  0  0  0  0  0  0  0  0  0
   10.4291   -0.1912    0.0000 N   0  0  0  0  0  0  0  0  0  0  0  0
   11.1791   -1.4903    0.0000 C   0  0  0  0  0  0  0  0  0  0  0  0
   10.4291   -2.7893    0.0000 C   0  0  0  0  0  0  0  0  0  0  0  0
   11.1791   -4.0884    0.0000 C   0  0  0  0  0  0  0  0  0  0  0  0
   12.6791   -4.0884    0.0000 C   0  0  0  0  0  0  0  0  0  0  0  0
   13.4291   -2.7893    0.0000 C   0  0  0  0  0  0  0  0  0  0  0  0
   12.6791   -1.4903    0.0000 C   0  0  0  0  0  0  0  0  0  0  0  0
  1  2  2  0
  2  3  1  0
  3  4  1  0
  4  5  1  0
  5  6  2  0
  6  7  1  0
  7  8  2  0
  8  9  1  0
  9 10  1  0
 10 11  2  0
 11 12  1  0
 12 13  2  0
 13 14  1  0
 14 15  2  0
 15 16  1  0
 16 17  2  0
 17 18  1  0
 18 19  2  0
 19 20  1  0
 20 21  2  0
 21 22  1  0
 22 23  2  0
 17 24  1  0
 24 25  2  0
 13 26  1  0
 26 27  2  0
  2 28  1  0
 28 29  1  0
 29 30  2  0
 30 31  1  0
 31 32  2  0
 32 33  1  0
 33 34  1  0
 34 35  2  0
 35 36  1  0
 36 37  2  0
 37 38  1  0
 38 39  2  0
  9  5  1  0
 27 10  1  0
 33 29  1  0
 39 34  1  0
 25 14  1  0
 23 18  1  0
M  END
>  <Title>  (409) 
idAAPSgen7

$$$$

     RDKit          2D

 15 15  0  0  0  0  0  0  0  0999 V2000
    5.3839   -1.2990    0.0000 C   0  0  0  0  0  0  0  0  0  0  0  0
    4.6339    0.0000    0.0000 O   0  0  0  0  0  0  0  0  0  0  0  0
    3.1339    0.0000    0.0000 C   0  0  0  0  0  0  0  0  0  0  0  0
    2.7750    1.4564    0.0000 C   0  0  0  0  0  0  0  0  0  0  0  0
    1.7803    2.5792    0.0000 C   0  0  0  0  0  0  0  0  0  0  0  0
    0.3778    3.1111    0.0000 C   0  0  0  0  0  0  0  0  0  0  0  0
   -1.1113    2.9303    0.0000 C   0  0  0  0  0  0  0  0  0  0  0  0
   -2.3458    2.0782    0.0000 C   0  0  0  0  0  0  0  0  0  0  0  0
   -3.0429    0.7500    0.0000 C   0  0  0  0  0  0  0  0  0  0  0  0
   -3.0429   -0.7500    0.0000 C   0  0  0  0  0  0  0  0  0  0  0  0
   -2.3458   -2.0782    0.0000 C   0  0  0  0  0  0  0  0  0  0  0  0
   -1.1113   -2.9303    0.0000 C   0  0  0  0  0  0  0  0  0  0  0  0
    0.3778   -3.1111    0.0000 C   0  0  0  0  0  0  0  0  0  0  0  0
    1.7803   -2.5792    0.0000 C   0  0  0  0  0  0  0  0  0  0  0  0
    2.7750   -1.4564    0.0000 C   0  0  0  0  0  0  0  0  0  0  0  0
  1  2  1  0
  2  3  1  0
  3  4  1  0
  4  5  1  0
  5  6  1  0
  6  7  1  0
  7  8  1  0
  8  9  1  0
  9 10  1  0
 10 11  1  0
 11 12  1  0
 12 13  1  0
 13 14  1  0
 14 15  1  0
 15  3  1  0
M  END
>  <Title>  (410) 
idAAPTgen7

$$$$

     RDKit          2D

 35 40  0  0  0  0  0  0  0  0999 V2000
   -8.4836    0.9465    0.0000 C   0  0  0  0  0  0  0  0  0  0  0  0
   -7.4229    2.0071    0.0000 C   0  0  0  0  0  0  0  0  0  0  0  0
   -5.9414    1.7725    0.0000 C   0  0  0  0  0  0  0  0  0  0  0  0
   -5.2604    3.1090    0.0000 C   0  0  0  0  0  0  0  0  0  0  0  0
   -6.3211    4.1697    0.0000 C   0  0  0  0  0  0  0  0  0  0  0  0
   -6.0864    5.6512    0.0000 C   0  0  0  0  0  0  0  0  0  0  0  0
   -7.1471    6.7119    0.0000 N   0  0  0  0  0  0  0  0  0  0  0  0
   -6.4661    8.0484    0.0000 N   0  0  0  0  0  0  0  0  0  0  0  0
   -4.9845    7.8137    0.0000 N   0  0  0  0  0  0  0  0  0  0  0  0
   -4.7499    6.3322    0.0000 N   0  0  0  0  0  0  0  0  0  0  0  0
   -3.4134    5.6512    0.0000 C   0  0  0  0  0  0  0  0  0  0  0  0
   -3.7252    4.1840    0.0000 C   0  0  0  0  0  0  0  0  0  0  0  0
   -3.2617    2.7574    0.0000 C   0  0  0  0  0  0  0  0  0  0  0  0
   -2.1470    1.7537    0.0000 C   0  0  0  0  0  0  0  0  0  0  0  0
   -1.8351    3.2209    0.0000 C   0  0  0  0  0  0  0  0  0  0  0  0
   -0.4086    3.6844    0.0000 C   0  0  0  0  0  0  0  0  0  0  0  0
    0.7062    2.6807    0.0000 C   0  0  0  0  0  0  0  0  0  0  0  0
    2.0624    4.4873    0.0000 C   0  0  0  0  0  0  0  0  0  0  0  0
    1.5988    5.9139    0.0000 C   0  0  0  0  0  0  0  0  0  0  0  0
    0.4841    6.9176    0.0000 C   0  0  0  0  0  0  0  0  0  0  0  0
    1.1651    8.2541    0.0000 C   0  0  0  0  0  0  0  0  0  0  0  0
    2.6631    8.3326    0.0000 C   0  0  0  0  0  0  0  0  0  0  0  0
    3.3440    9.6691    0.0000 C   0  0  0  0  0  0  0  0  0  0  0  0
    2.5271   10.9271    0.0000 C   0  0  0  0  0  0  0  0  0  0  0  0
    1.0291   10.8486    0.0000 C   0  0  0  0  0  0  0  0  0  0  0  0
    0.3482    9.5121    0.0000 C   0  0  0  0  0  0  0  0  0  0  0  0
   -0.9831    7.2294    0.0000 C   0  0  0  0  0  0  0  0  0  0  0  0
   -2.4097    6.7659    0.0000 C   0  0  0  0  0  0  0  0  0  0  0  0
    0.3943    1.2135    0.0000 N   0  0  0  0  0  0  0  0  0  0  0  0
    1.2760    0.0000    0.0000 N   0  0  0  0  0  0  0  0  0  0  0  0
    0.3943   -1.2135    0.0000 N   0  0  0  0  0  0  0  0  0  0  0  0
   -1.0323   -0.7500    0.0000 N   0  0  0  0  0  0  0  0  0  0  0  0
   -1.0323    0.7500    0.0000 C   0  0  0  0  0  0  0  0  0  0  0  0
   -7.6576    3.4887    0.0000 C   0  0  0  0  0  0  0  0  0  0  0  0
   -8.9941    4.1697    0.0000 O   0  0  0  0  0  0  0  0  0  0  0  0
  1  2  1  0
  2  3  2  0
  3  4  1  0
  4  5  2  0
  5  6  1  0
  6  7  2  0
  7  8  1  0
  8  9  2  0
  9 10  1  0
 10 11  1  0
 11 12  2  0
 12 13  1  0
 13 14  2  0
 14 15  1  0
 15 16  1  0
 16 17  1  0
 17 18  2  0
 18 19  1  0
 19 20  2  0
 20 21  1  0
 21 22  2  0
 22 23  1  0
 23 24  2  0
 24 25  1  0
 25 26  2  0
 20 27  1  0
 27 28  2  0
 17 29  1  0
 29 30  1  0
 30 31  2  0
 31 32  1  0
 32 33  2  0
  5 34  1  0
 34 35  2  0
 34  2  1  0
 10  6  1  0
 28 11  1  0
 33 29  1  0
 33 14  1  0
 26 21  1  0
M  END
>  <Title>  (411) 
idAAPUgen7

$$$$

     RDKit          2D

  8  8  0  0  0  0  0  0  0  0999 V2000
    3.2286   -0.0000    0.0000 O   0  0  0  0  0  0  0  0  0  0  0  0
    1.7286    0.0000    0.0000 C   0  0  0  0  0  0  0  0  0  0  0  0
    1.0777    1.3515    0.0000 C   0  0  0  0  0  0  0  0  0  0  0  0
   -0.3846    1.6852    0.0000 C   0  0  0  0  0  0  0  0  0  0  0  0
   -1.5574    0.7500    0.0000 C   0  0  0  0  0  0  0  0  0  0  0  0
   -1.5574   -0.7500    0.0000 C   0  0  0  0  0  0  0  0  0  0  0  0
   -0.3846   -1.6852    0.0000 C   0  0  0  0  0  0  0  0  0  0  0  0
    1.0777   -1.3515    0.0000 N   0  0  0  0  0  0  0  0  0  0  0  0
  1  2  2  0
  2  3  1  0
  3  4  2  0
  4  5  1  0
  5  6  2  0
  6  7  1  0
  7  8  1  0
  8  2  1  0
M  END
>  <Title>  (412) 
idAAPVgen7

$$$$

     RDKit          2D

 43 48  0  0  0  0  0  0  0  0999 V2000
    3.0000    0.0000    0.0000 C   0  0  0  0  0  0  0  0  0  0  0  0
    1.5000    0.0000    0.0000 C   0  0  0  0  0  0  0  0  0  0  0  0
    0.7500   -1.2990    0.0000 C   0  0  0  0  0  0  0  0  0  0  0  0
   -0.7500   -1.2990    0.0000 C   0  0  0  0  0  0  0  0  0  0  0  0
   -1.5000    0.0000    0.0000 C   0  0  0  0  0  0  0  0  0  0  0  0
   -3.0000    0.0000    0.0000 C   0  0  0  0  0  0  0  0  0  0  0  0
   -3.7500   -1.2990    0.0000 O   0  0  0  0  0  0  0  0  0  0  0  0
   -3.7500    1.2990    0.0000 N   0  0  0  0  0  0  0  0  0  0  0  0
   -5.2500    1.2990    0.0000 C   0  0  0  0  0  0  0  0  0  0  0  0
   -6.1317    0.0855    0.0000 N   0  0  0  0  0  0  0  0  0  0  0  0
   -7.5583    0.5490    0.0000 N   0  0  0  0  0  0  0  0  0  0  0  0
   -7.5583    2.0490    0.0000 N   0  0  0  0  0  0  0  0  0  0  0  0
   -6.1317    2.5126    0.0000 N   0  0  0  0  0  0  0  0  0  0  0  0
   -5.6682    3.9391    0.0000 C   0  0  0  0  0  0  0  0  0  0  0  0
   -4.2009    4.2510    0.0000 C   0  0  0  0  0  0  0  0  0  0  0  0
   -3.7374    5.6776    0.0000 C   0  0  0  0  0  0  0  0  0  0  0  0
   -4.7411    6.7923    0.0000 C   0  0  0  0  0  0  0  0  0  0  0  0
   -4.2776    8.2189    0.0000 C   0  0  0  0  0  0  0  0  0  0  0  0
   -5.2813    9.3336    0.0000 O   0  0  0  0  0  0  0  0  0  0  0  0
   -2.8104    8.5308    0.0000 N   0  0  0  0  0  0  0  0  0  0  0  0
   -2.3468    9.9574    0.0000 C   0  0  0  0  0  0  0  0  0  0  0  0
   -0.8796   10.2692    0.0000 C   0  0  0  0  0  0  0  0  0  0  0  0
   -0.4161   11.6958    0.0000 C   0  0  0  0  0  0  0  0  0  0  0  0
   -1.4198   12.8105    0.0000 C   0  0  0  0  0  0  0  0  0  0  0  0
   -2.8870   12.4987    0.0000 C   0  0  0  0  0  0  0  0  0  0  0  0
   -3.3505   11.0721    0.0000 C   0  0  0  0  0  0  0  0  0  0  0  0
   -6.2083    6.4805    0.0000 C   0  0  0  0  0  0  0  0  0  0  0  0
   -6.6718    5.0539    0.0000 C   0  0  0  0  0  0  0  0  0  0  0  0
   -8.1391    4.7420    0.0000 C   0  0  0  0  0  0  0  0  0  0  0  0
   -9.1428    5.8567    0.0000 C   0  0  0  0  0  0  0  0  0  0  0  0
  -10.6100    5.5448    0.0000 C   0  0  0  0  0  0  0  0  0  0  0  0
  -11.0735    4.1183    0.0000 C   0  0  0  0  0  0  0  0  0  0  0  0
  -12.5407    3.8064    0.0000 C   0  0  0  0  0  0  0  0  0  0  0  0
  -13.1508    2.4361    0.0000 N   0  0  0  0  0  0  0  0  0  0  0  0
  -14.6426    2.5929    0.0000 N   0  0  0  0  0  0  0  0  0  0  0  0
  -14.9545    4.0601    0.0000 N   0  0  0  0  0  0  0  0  0  0  0  0
  -13.6555    4.8101    0.0000 N   0  0  0  0  0  0  0  0  0  0  0  0
  -10.0698    3.0035    0.0000 C   0  0  0  0  0  0  0  0  0  0  0  0
  -10.5333    1.5770    0.0000 O   0  0  0  0  0  0  0  0  0  0  0  0
   -8.6026    3.3154    0.0000 N   0  0  0  0  0  0  0  0  0  0  0  0
   -0.7500    1.2990    0.0000 C   0  0  0  0  0  0  0  0  0  0  0  0
   -1.5000    2.5981    0.0000 O   0  0  0  0  0  0  0  0  0  0  0  0
    0.7500    1.2990    0.0000 N   0  0  0  0  0  0  0  0  0  0  0  0
  1  2  1  0
  2  3  2  0
  3  4  1  0
  4  5  2  0
  5  6  1  0
  6  7  2  0
  6  8  1  0
  8  9  1  0
  9 10  2  0
 10 11  1  0
 11 12  2  0
 12 13  1  0
 13 14  1  0
 14 15  2  0
 15 16  1  0
 16 17  2  0
 17 18  1  0
 18 19  2  0
 18 20  1  0
 20 21  1  0
 21 22  2  0
 22 23  1  0
 23 24  2  0
 24 25  1  0
 25 26  2  0
 17 27  1  0
 27 28  2  0
 28 29  1  0
 29 30  2  0
 30 31  1  0
 31 32  2  0
 32 33  1  0
 33 34  2  0
 34 35  1  0
 35 36  2  0
 36 37  1  0
 32 38  1  0
 38 39  2  0
 38 40  1  0
  5 41  1  0
 41 42  2  0
 41 43  1  0
 43  2  1  0
 13  9  1  0
 28 14  1  0
 40 29  1  0
 26 21  1  0
 37 33  1  0
M  END
>  <Title>  (413) 
idAAPWgen7

$$$$

     RDKit          2D

 19 21  0  0  0  0  0  0  0  0999 V2000
    0.0000   -9.6073    0.0000 C   0  0  0  0  0  0  0  0  0  0  0  0
    0.0000   -8.1073    0.0000 C   0  0  0  0  0  0  0  0  0  0  0  0
   -1.2990   -7.3573    0.0000 C   0  0  0  0  0  0  0  0  0  0  0  0
   -1.2990   -5.8573    0.0000 C   0  0  0  0  0  0  0  0  0  0  0  0
   -0.0000   -5.1073    0.0000 C   0  0  0  0  0  0  0  0  0  0  0  0
   -0.0000   -3.6073    0.0000 N   0  0  0  0  0  0  0  0  0  0  0  0
    1.2135   -2.7256    0.0000 C   0  0  0  0  0  0  0  0  0  0  0  0
    2.6401   -3.1891    0.0000 O   0  0  0  0  0  0  0  0  0  0  0  0
    0.7500   -1.2990    0.0000 C   0  0  0  0  0  0  0  0  0  0  0  0
    1.5000    0.0000    0.0000 C   0  0  0  0  0  0  0  0  0  0  0  0
    0.7500    1.2990    0.0000 C   0  0  0  0  0  0  0  0  0  0  0  0
   -0.7500    1.2990    0.0000 C   0  0  0  0  0  0  0  0  0  0  0  0
   -1.5000    0.0000    0.0000 C   0  0  0  0  0  0  0  0  0  0  0  0
   -0.7500   -1.2990    0.0000 C   0  0  0  0  0  0  0  0  0  0  0  0
   -1.2135   -2.7256    0.0000 C   0  0  0  0  0  0  0  0  0  0  0  0
   -2.6401   -3.1891    0.0000 O   0  0  0  0  0  0  0  0  0  0  0  0
    1.2990   -5.8573    0.0000 C   0  0  0  0  0  0  0  0  0  0  0  0
    2.5981   -5.1073    0.0000 O   0  0  0  0  0  0  0  0  0  0  0  0
    1.2990   -7.3573    0.0000 N   0  0  0  0  0  0  0  0  0  0  0  0
  1  2  1  0
  2  3  2  0
  3  4  1  0
  4  5  2  0
  5  6  1  0
  6  7  1  0
  7  8  2  0
  7  9  1  0
  9 10  1  0
 10 11  1  0
 11 12  1  0
 12 13  1  0
 13 14  1  0
 14 15  1  0
 15 16  2  0
  5 17  1  0
 17 18  2  0
 17 19  1  0
 19  2  1  0
 15  6  1  0
 14  9  1  0
M  END
>  <Title>  (414) 
idAAPXgen7

$$$$

     RDKit          2D

 56 65  0  0  0  0  0  0  0  0999 V2000
   -0.8478   -2.5278    0.0000 C   0  0  0  0  0  0  0  0  0  0  0  0
    0.6415   -2.3487    0.0000 C   0  0  0  0  0  0  0  0  0  0  0  0
    1.5412   -3.5489    0.0000 C   0  0  0  0  0  0  0  0  0  0  0  0
    3.0305   -3.3698    0.0000 C   0  0  0  0  0  0  0  0  0  0  0  0
    3.6200   -1.9905    0.0000 C   0  0  0  0  0  0  0  0  0  0  0  0
    5.1093   -1.8114    0.0000 C   0  0  0  0  0  0  0  0  0  0  0  0
    6.1296   -2.9110    0.0000 N   0  0  0  0  0  0  0  0  0  0  0  0
    7.4906   -2.2805    0.0000 N   0  0  0  0  0  0  0  0  0  0  0  0
    7.3115   -0.7912    0.0000 N   0  0  0  0  0  0  0  0  0  0  0  0
    5.8398   -0.5013    0.0000 N   0  0  0  0  0  0  0  0  0  0  0  0
    5.2093    0.8597    0.0000 C   0  0  0  0  0  0  0  0  0  0  0  0
    3.7153    0.9942    0.0000 C   0  0  0  0  0  0  0  0  0  0  0  0
    3.0848    2.3552    0.0000 C   0  0  0  0  0  0  0  0  0  0  0  0
    3.9482    3.5818    0.0000 C   0  0  0  0  0  0  0  0  0  0  0  0
    3.3177    4.9428    0.0000 C   0  0  0  0  0  0  0  0  0  0  0  0
    4.0481    6.2530    0.0000 N   0  0  0  0  0  0  0  0  0  0  0  0
    3.0279    7.3525    0.0000 N   0  0  0  0  0  0  0  0  0  0  0  0
    1.6668    6.7220    0.0000 N   0  0  0  0  0  0  0  0  0  0  0  0
    1.8459    5.2327    0.0000 N   0  0  0  0  0  0  0  0  0  0  0  0
    0.6125    2.6888    0.0000 C   0  0  0  0  0  0  0  0  0  0  0  0
   -0.6865    2.3879    0.0000 C   0  0  0  0  0  0  0  0  0  0  0  0
   -0.6536    2.4056    0.0000 C   0  0  0  0  0  0  0  0  0  0  0  0
   -1.8045    2.1326    0.0000 C   0  0  0  0  0  0  0  0  0  0  0  0
   -4.3899    3.8094    0.0000 C   0  0  0  0  0  0  0  0  0  0  0  0
   -4.8747    5.2289    0.0000 N   0  0  0  0  0  0  0  0  0  0  0  0
   -6.3746    5.2065    0.0000 N   0  0  0  0  0  0  0  0  0  0  0  0
   -6.8167    3.7731    0.0000 N   0  0  0  0  0  0  0  0  0  0  0  0
   -5.5901    2.9097    0.0000 N   0  0  0  0  0  0  0  0  0  0  0  0
   -5.5677    1.4099    0.0000 C   0  0  0  0  0  0  0  0  0  0  0  0
   -4.3411    0.5465    0.0000 N   0  0  0  0  0  0  0  0  0  0  0  0
   -4.7832   -0.8869    0.0000 N   0  0  0  0  0  0  0  0  0  0  0  0
   -6.2831   -0.9093    0.0000 N   0  0  0  0  0  0  0  0  0  0  0  0
   -6.7679    0.5101    0.0000 N   0  0  0  0  0  0  0  0  0  0  0  0
   -8.2012    0.9523    0.0000 C   0  0  0  0  0  0  0  0  0  0  0  0
   -9.4014    0.0525    0.0000 N   0  0  0  0  0  0  0  0  0  0  0  0
  -10.6280    0.9160    0.0000 N   0  0  0  0  0  0  0  0  0  0  0  0
  -10.1859    2.3493    0.0000 N   0  0  0  0  0  0  0  0  0  0  0  0
   -8.6860    2.3718    0.0000 N   0  0  0  0  0  0  0  0  0  0  0  0
   -2.4924    1.9580    0.0000 C   0  0  0  0  0  0  0  0  0  0  0  0
   -1.6484    3.0644    0.0000 N   0  0  0  0  0  0  0  0  0  0  0  0
   -0.8620    3.6224    0.0000 N   0  0  0  0  0  0  0  0  0  0  0  0
    0.0886    3.4609    0.0000 N   0  0  0  0  0  0  0  0  0  0  0  0
    1.3290    2.8303    0.0000 N   0  0  0  0  0  0  0  0  0  0  0  0
    1.0777    1.3515    0.0000 C   0  0  0  0  0  0  0  0  0  0  0  0
    1.7286    0.0000    0.0000 N   0  0  0  0  0  0  0  0  0  0  0  0
    1.0777   -1.3515    0.0000 N   0  0  0  0  0  0  0  0  0  0  0  0
   -0.3846   -1.6852    0.0000 N   0  0  0  0  0  0  0  0  0  0  0  0
   -1.5574   -0.7500    0.0000 N   0  0  0  0  0  0  0  0  0  0  0  0
   -1.5574    0.7500    0.0000 C   0  0  0  0  0  0  0  0  0  0  0  0
   -0.3846    1.6852    0.0000 C   0  0  0  0  0  0  0  0  0  0  0  0
   -0.7184    3.1476    0.0000 O   0  0  0  0  0  0  0  0  0  0  0  0
    5.4422    3.4474    0.0000 C   0  0  0  0  0  0  0  0  0  0  0  0
    6.3056    4.6739    0.0000 O   0  0  0  0  0  0  0  0  0  0  0  0
    6.0727    2.0863    0.0000 N   0  0  0  0  0  0  0  0  0  0  0  0
    2.7203   -0.7903    0.0000 N   0  0  0  0  0  0  0  0  0  0  0  0
    1.2310   -0.9694    0.0000 C   0  0  0  0  0  0  0  0  0  0  0  0
  1  2  1  0
  2  3  2  0
  3  4  1  0
  4  5  2  0
  5  6  1  0
  6  7  2  0
  7  8  1  0
  8  9  2  0
  9 10  1  0
 10 11  1  0
 11 12  2  0
 12 13  1  0
 13 14  2  0
 14 15  1  0
 15 16  2  0
 16 17  1  0
 17 18  2  0
 18 19  1  0
 19 20  1  0
 20 21  2  0
 21 22  1  0
 22 23  2  0
 23 24  1  0
 24 25  2  0
 25 26  1  0
 26 27  2  0
 27 28  1  0
 28 29  1  0
 29 30  2  0
 30 31  1  0
 31 32  2  0
 32 33  1  0
 33 34  1  0
 34 35  2  0
 35 36  1  0
 36 37  2  0
 37 38  1  0
 23 39  1  0
 39 40  2  0
 40 41  1  0
 41 42  2  0
 42 43  1  0
 43 44  1  0
 44 45  2  0
 45 46  1  0
 46 47  2  0
 47 48  1  0
 48 49  2  0
 49 50  1  0
 50 51  2  0
 14 52  1  0
 52 53  2  0
 52 54  1  0
  5 55  1  0
 55 56  1  0
 56  2  1  0
 10  6  1  0
 54 11  1  0
 19 15  1  0
 43 20  1  0
 50 44  1  0
 28 24  1  0
 33 29  1  0
 38 34  1  0
 49 39  1  0
M  END
>  <Title>  (415) 
idAAPYgen7

$$$$

     RDKit          2D

 16 16  0  0  0  0  0  0  0  0999 V2000
    5.3839   -1.2990    0.0000 C   0  0  0  0  0  0  0  0  0  0  0  0
    4.6339    0.0000    0.0000 C   0  0  0  0  0  0  0  0  0  0  0  0
    5.3839    1.2990    0.0000 O   0  0  0  0  0  0  0  0  0  0  0  0
    3.1339    0.0000    0.0000 N   0  0  0  0  0  0  0  0  0  0  0  0
    2.7750    1.4564    0.0000 C   0  0  0  0  0  0  0  0  0  0  0  0
    1.7803    2.5792    0.0000 C   0  0  0  0  0  0  0  0  0  0  0  0
    0.3778    3.1111    0.0000 C   0  0  0  0  0  0  0  0  0  0  0  0
   -1.1113    2.9303    0.0000 C   0  0  0  0  0  0  0  0  0  0  0  0
   -2.3458    2.0782    0.0000 C   0  0  0  0  0  0  0  0  0  0  0  0
   -3.0429    0.7500    0.0000 C   0  0  0  0  0  0  0  0  0  0  0  0
   -3.0429   -0.7500    0.0000 C   0  0  0  0  0  0  0  0  0  0  0  0
   -2.3458   -2.0782    0.0000 C   0  0  0  0  0  0  0  0  0  0  0  0
   -1.1113   -2.9303    0.0000 C   0  0  0  0  0  0  0  0  0  0  0  0
    0.3778   -3.1111    0.0000 C   0  0  0  0  0  0  0  0  0  0  0  0
    1.7803   -2.5792    0.0000 C   0  0  0  0  0  0  0  0  0  0  0  0
    2.7750   -1.4564    0.0000 C   0  0  0  0  0  0  0  0  0  0  0  0
  1  2  1  0
  2  3  2  0
  2  4  1  0
  4  5  1  0
  5  6  1  0
  6  7  1  0
  7  8  1  0
  8  9  1  0
  9 10  1  0
 10 11  1  0
 11 12  1  0
 12 13  1  0
 13 14  1  0
 14 15  1  0
 15 16  1  0
 16  4  1  0
M  END
>  <Title>  (416) 
idAAPZgen7

$$$$

     RDKit          2D

 24 27  0  0  0  0  0  0  0  0999 V2000
    7.5646   -0.1148    0.0000 C   0  0  0  0  0  0  0  0  0  0  0  0
    6.0974   -0.4266    0.0000 C   0  0  0  0  0  0  0  0  0  0  0  0
    4.9826    0.5771    0.0000 C   0  0  0  0  0  0  0  0  0  0  0  0
    3.6836   -0.1729    0.0000 C   0  0  0  0  0  0  0  0  0  0  0  0
    3.9955   -1.6402    0.0000 C   0  0  0  0  0  0  0  0  0  0  0  0
    2.9918   -2.7549    0.0000 C   0  0  0  0  0  0  0  0  0  0  0  0
    3.3037   -4.2221    0.0000 N   0  0  0  0  0  0  0  0  0  0  0  0
    2.0046   -4.9721    0.0000 N   0  0  0  0  0  0  0  0  0  0  0  0
    0.8899   -3.9684    0.0000 N   0  0  0  0  0  0  0  0  0  0  0  0
    1.5000   -2.5981    0.0000 N   0  0  0  0  0  0  0  0  0  0  0  0
    0.7500   -1.2990    0.0000 C   0  0  0  0  0  0  0  0  0  0  0  0
    1.5000    0.0000    0.0000 C   0  0  0  0  0  0  0  0  0  0  0  0
    0.7500    1.2990    0.0000 C   0  0  0  0  0  0  0  0  0  0  0  0
   -0.7500    1.2990    0.0000 C   0  0  0  0  0  0  0  0  0  0  0  0
   -1.5000    2.5981    0.0000 C   0  0  0  0  0  0  0  0  0  0  0  0
   -0.7500    3.8971    0.0000 C   0  0  0  0  0  0  0  0  0  0  0  0
   -1.5000    5.1962    0.0000 C   0  0  0  0  0  0  0  0  0  0  0  0
   -3.0000    5.1962    0.0000 C   0  0  0  0  0  0  0  0  0  0  0  0
   -3.7500    3.8971    0.0000 C   0  0  0  0  0  0  0  0  0  0  0  0
   -3.0000    2.5981    0.0000 C   0  0  0  0  0  0  0  0  0  0  0  0
   -1.5000    0.0000    0.0000 C   0  0  0  0  0  0  0  0  0  0  0  0
   -0.7500   -1.2990    0.0000 C   0  0  0  0  0  0  0  0  0  0  0  0
    5.4873   -1.7969    0.0000 C   0  0  0  0  0  0  0  0  0  0  0  0
    6.2373   -3.0960    0.0000 O   0  0  0  0  0  0  0  0  0  0  0  0
  1  2  1  0
  2  3  2  0
  3  4  1  0
  4  5  2  0
  5  6  1  0
  6  7  2  0
  7  8  1  0
  8  9  2  0
  9 10  1  0
 10 11  1  0
 11 12  2  0
 12 13  1  0
 13 14  2  0
 14 15  1  0
 15 16  2  0
 16 17  1  0
 17 18  2  0
 18 19  1  0
 19 20  2  0
 14 21  1  0
 21 22  2  0
  5 23  1  0
 23 24  2  0
 23  2  1  0
 10  6  1  0
 22 11  1  0
 20 15  1  0
M  END
>  <Title>  (417) 
idAAQAgen7

$$$$

     RDKit          2D

 34 39  0  0  0  0  0  0  0  0999 V2000
  -10.1624    4.2767    0.0000 C   0  0  0  0  0  0  0  0  0  0  0  0
   -8.9488    3.3950    0.0000 C   0  0  0  0  0  0  0  0  0  0  0  0
   -7.5785    4.0051    0.0000 C   0  0  0  0  0  0  0  0  0  0  0  0
   -6.3650    3.1235    0.0000 C   0  0  0  0  0  0  0  0  0  0  0  0
   -6.5218    1.6317    0.0000 C   0  0  0  0  0  0  0  0  0  0  0  0
   -5.3083    0.7500    0.0000 C   0  0  0  0  0  0  0  0  0  0  0  0
   -5.3083   -0.7500    0.0000 N   0  0  0  0  0  0  0  0  0  0  0  0
   -3.8817   -1.2135    0.0000 N   0  0  0  0  0  0  0  0  0  0  0  0
   -3.0000    0.0000    0.0000 N   0  0  0  0  0  0  0  0  0  0  0  0
   -3.8817    1.2135    0.0000 N   0  0  0  0  0  0  0  0  0  0  0  0
   -3.4182    2.6401    0.0000 C   0  0  0  0  0  0  0  0  0  0  0  0
   -4.2998    3.8536    0.0000 C   0  0  0  0  0  0  0  0  0  0  0  0
   -3.4182    5.0672    0.0000 N   0  0  0  0  0  0  0  0  0  0  0  0
   -1.9916    4.6036    0.0000 N   0  0  0  0  0  0  0  0  0  0  0  0
   -1.9916    3.1036    0.0000 N   0  0  0  0  0  0  0  0  0  0  0  0
   -0.7780    2.2220    0.0000 C   0  0  0  0  0  0  0  0  0  0  0  0
    0.7137    2.0652    0.0000 C   0  0  0  0  0  0  0  0  0  0  0  0
    2.0841    2.6753    0.0000 N   0  0  0  0  0  0  0  0  0  0  0  0
    3.2976    1.7936    0.0000 N   0  0  0  0  0  0  0  0  0  0  0  0
    4.6679    2.4037    0.0000 N   0  0  0  0  0  0  0  0  0  0  0  0
    4.8247    3.8955    0.0000 N   0  0  0  0  0  0  0  0  0  0  0  0
    3.6112    4.7772    0.0000 N   0  0  0  0  0  0  0  0  0  0  0  0
    2.2409    4.1671    0.0000 N   0  0  0  0  0  0  0  0  0  0  0  0
    1.0273    5.0487    0.0000 C   0  0  0  0  0  0  0  0  0  0  0  0
    1.1841    6.5405    0.0000 C   0  0  0  0  0  0  0  0  0  0  0  0
   -0.0294    7.4222    0.0000 C   0  0  0  0  0  0  0  0  0  0  0  0
   -1.3997    6.8121    0.0000 C   0  0  0  0  0  0  0  0  0  0  0  0
   -1.5565    5.3203    0.0000 C   0  0  0  0  0  0  0  0  0  0  0  0
   -0.3430    4.4386    0.0000 C   0  0  0  0  0  0  0  0  0  0  0  0
   -0.1679    0.8516    0.0000 C   0  0  0  0  0  0  0  0  0  0  0  0
   -0.3247   -0.6401    0.0000 O   0  0  0  0  0  0  0  0  0  0  0  0
   -7.8921    1.0216    0.0000 C   0  0  0  0  0  0  0  0  0  0  0  0
   -8.0489   -0.4702    0.0000 O   0  0  0  0  0  0  0  0  0  0  0  0
   -9.1056    1.9033    0.0000 N   0  0  0  0  0  0  0  0  0  0  0  0
  1  2  1  0
  2  3  2  0
  3  4  1  0
  4  5  2  0
  5  6  1  0
  6  7  2  0
  7  8  1  0
  8  9  2  0
  9 10  1  0
 10 11  1  0
 11 12  2  0
 12 13  1  0
 13 14  2  0
 14 15  1  0
 15 16  1  0
 16 17  2  0
 17 18  1  0
 18 19  1  0
 19 20  2  0
 20 21  1  0
 21 22  2  0
 22 23  1  0
 23 24  1  0
 24 25  2  0
 25 26  1  0
 26 27  2  0
 27 28  1  0
 28 29  2  0
 17 30  1  0
 30 31  2  0
  5 32  1  0
 32 33  2  0
 32 34  1  0
 34  2  1  0
 10  6  1  0
 15 11  1  0
 30 16  1  0
 23 18  1  0
 29 24  1  0
M  END
>  <Title>  (418) 
idAAQBgen7

$$$$

     RDKit          2D

 63 73  0  0  0  0  0  0  0  0999 V2000
  -10.1624    4.2767    0.0000 C   0  0  0  0  0  0  0  0  0  0  0  0
   -8.9488    3.3950    0.0000 C   0  0  0  0  0  0  0  0  0  0  0  0
   -7.5785    4.0051    0.0000 C   0  0  0  0  0  0  0  0  0  0  0  0
   -6.3650    3.1235    0.0000 C   0  0  0  0  0  0  0  0  0  0  0  0
   -6.5218    1.6317    0.0000 C   0  0  0  0  0  0  0  0  0  0  0  0
   -5.3083    0.7500    0.0000 C   0  0  0  0  0  0  0  0  0  0  0  0
   -5.3083   -0.7500    0.0000 N   0  0  0  0  0  0  0  0  0  0  0  0
   -3.8817   -1.2135    0.0000 N   0  0  0  0  0  0  0  0  0  0  0  0
   -3.0000    0.0000    0.0000 N   0  0  0  0  0  0  0  0  0  0  0  0
   -3.8817    1.2135    0.0000 N   0  0  0  0  0  0  0  0  0  0  0  0
   -3.4182    2.6401    0.0000 C   0  0  0  0  0  0  0  0  0  0  0  0
   -4.4218    3.7548    0.0000 C   0  0  0  0  0  0  0  0  0  0  0  0
   -3.9583    5.1814    0.0000 C   0  0  0  0  0  0  0  0  0  0  0  0
   -2.4911    5.4933    0.0000 C   0  0  0  0  0  0  0  0  0  0  0  0
   -2.0276    6.9199    0.0000 C   0  0  0  0  0  0  0  0  0  0  0  0
   -2.9093    8.1334    0.0000 N   0  0  0  0  0  0  0  0  0  0  0  0
   -2.0276    9.3469    0.0000 N   0  0  0  0  0  0  0  0  0  0  0  0
   -0.6010    8.8834    0.0000 N   0  0  0  0  0  0  0  0  0  0  0  0
   -0.6010    7.3834    0.0000 N   0  0  0  0  0  0  0  0  0  0  0  0
    0.6125    6.5017    0.0000 C   0  0  0  0  0  0  0  0  0  0  0  0
    0.4557    5.0099    0.0000 C   0  0  0  0  0  0  0  0  0  0  0  0
    1.6693    4.1283    0.0000 C   0  0  0  0  0  0  0  0  0  0  0  0
    3.0396    4.7384    0.0000 C   0  0  0  0  0  0  0  0  0  0  0  0
    4.2531    3.8567    0.0000 C   0  0  0  0  0  0  0  0  0  0  0  0
    5.7346    4.0913    0.0000 C   0  0  0  0  0  0  0  0  0  0  0  0
    5.9693    2.6098    0.0000 C   0  0  0  0  0  0  0  0  0  0  0  0
    4.4878    2.3751    0.0000 C   0  0  0  0  0  0  0  0  0  0  0  0
    3.6061    1.1616    0.0000 C   0  0  0  0  0  0  0  0  0  0  0  0
    2.1143    1.3184    0.0000 C   0  0  0  0  0  0  0  0  0  0  0  0
    1.2326    0.1049    0.0000 C   0  0  0  0  0  0  0  0  0  0  0  0
    1.8427   -1.2654    0.0000 C   0  0  0  0  0  0  0  0  0  0  0  0
    3.3345   -1.4222    0.0000 C   0  0  0  0  0  0  0  0  0  0  0  0
    4.2162   -0.2087    0.0000 C   0  0  0  0  0  0  0  0  0  0  0  0
    3.1964    6.2301    0.0000 C   0  0  0  0  0  0  0  0  0  0  0  0
    1.9829    7.1118    0.0000 C   0  0  0  0  0  0  0  0  0  0  0  0
    2.1396    8.6036    0.0000 C   0  0  0  0  0  0  0  0  0  0  0  0
    0.9261    9.4853    0.0000 C   0  0  0  0  0  0  0  0  0  0  0  0
    1.0829   10.9771    0.0000 C   0  0  0  0  0  0  0  0  0  0  0  0
    2.4532   11.5872    0.0000 C   0  0  0  0  0  0  0  0  0  0  0  0
    3.6668   10.7055    0.0000 N   0  0  0  0  0  0  0  0  0  0  0  0
    3.5100    9.2137    0.0000 C   0  0  0  0  0  0  0  0  0  0  0  0
    4.7235    8.3320    0.0000 C   0  0  0  0  0  0  0  0  0  0  0  0
    4.7235    6.8320    0.0000 N   0  0  0  0  0  0  0  0  0  0  0  0
    6.1501    6.3685    0.0000 N   0  0  0  0  0  0  0  0  0  0  0  0
    7.0318    7.5820    0.0000 N   0  0  0  0  0  0  0  0  0  0  0  0
    6.1501    8.7956    0.0000 N   0  0  0  0  0  0  0  0  0  0  0  0
    6.6136   10.2221    0.0000 C   0  0  0  0  0  0  0  0  0  0  0  0
    5.6099   11.3369    0.0000 C   0  0  0  0  0  0  0  0  0  0  0  0
    6.0734   12.7634    0.0000 C   0  0  0  0  0  0  0  0  0  0  0  0
    7.5407   13.0753    0.0000 C   0  0  0  0  0  0  0  0  0  0  0  0
    8.5443   11.9606    0.0000 C   0  0  0  0  0  0  0  0  0  0  0  0
    8.0808   10.5340    0.0000 C   0  0  0  0  0  0  0  0  0  0  0  0
    9.0845    9.4193    0.0000 C   0  0  0  0  0  0  0  0  0  0  0  0
   10.5517    9.7312    0.0000 C   0  0  0  0  0  0  0  0  0  0  0  0
   11.5554    8.6164    0.0000 C   0  0  0  0  0  0  0  0  0  0  0  0
   11.0919    7.1899    0.0000 C   0  0  0  0  0  0  0  0  0  0  0  0
    9.6247    6.8780    0.0000 C   0  0  0  0  0  0  0  0  0  0  0  0
    8.6210    7.9927    0.0000 C   0  0  0  0  0  0  0  0  0  0  0  0
   -1.4874    4.3786    0.0000 C   0  0  0  0  0  0  0  0  0  0  0  0
   -1.9509    2.9520    0.0000 C   0  0  0  0  0  0  0  0  0  0  0  0
   -7.8921    1.0216    0.0000 C   0  0  0  0  0  0  0  0  0  0  0  0
   -8.0489   -0.4702    0.0000 O   0  0  0  0  0  0  0  0  0  0  0  0
   -9.1056    1.9033    0.0000 N   0  0  0  0  0  0  0  0  0  0  0  0
  1  2  1  0
  2  3  2  0
  3  4  1  0
  4  5  2  0
  5  6  1  0
  6  7  2  0
  7  8  1  0
  8  9  2  0
  9 10  1  0
 10 11  1  0
 11 12  2  0
 12 13  1  0
 13 14  2  0
 14 15  1  0
 15 16  2  0
 16 17  1  0
 17 18  2  0
 18 19  1  0
 19 20  1  0
 20 21  2  0
 21 22  1  0
 22 23  2  0
 23 24  1  0
 24 25  2  0
 25 26  1  0
 26 27  2  0
 27 28  1  0
 28 29  2  0
 29 30  1  0
 30 31  2  0
 31 32  1  0
 32 33  2  0
 23 34  1  0
 34 35  2  0
 35 36  1  0
 36 37  2  0
 37 38  1  0
 38 39  2  0
 39 40  1  0
 40 41  2  0
 41 42  1  0
 42 43  2  0
 43 44  1  0
 44 45  2  0
 45 46  1  0
 46 47  1  0
 47 48  2  0
 48 49  1  0
 49 50  2  0
 50 51  1  0
 51 52  2  0
 52 53  1  0
 53 54  2  0
 54 55  1  0
 55 56  2  0
 56 57  1  0
 57 58  2  0
 14 59  1  0
 59 60  2  0
  5 61  1  0
 61 62  2  0
 61 63  1  0
 63  2  1  0
 10  6  1  0
 60 11  1  0
 19 15  1  0
 35 20  1  0
 41 36  1  0
 46 42  1  0
 52 47  1  0
 58 53  1  0
 27 24  1  0
 33 28  1  0
M  END
>  <Title>  (419) 
idAAQCgen7

$$$$

     RDKit          2D

  7  7  0  0  0  0  0  0  0  0999 V2000
    3.0000    0.0000    0.0000 O   0  0  0  0  0  0  0  0  0  0  0  0
    1.5000    0.0000    0.0000 C   0  0  0  0  0  0  0  0  0  0  0  0
    0.7500   -1.2990    0.0000 C   0  0  0  0  0  0  0  0  0  0  0  0
   -0.7500   -1.2990    0.0000 C   0  0  0  0  0  0  0  0  0  0  0  0
   -1.5000    0.0000    0.0000 C   0  0  0  0  0  0  0  0  0  0  0  0
   -0.7500    1.2990    0.0000 C   0  0  0  0  0  0  0  0  0  0  0  0
    0.7500    1.2990    0.0000 C   0  0  0  0  0  0  0  0  0  0  0  0
  1  2  1  0
  2  3  2  0
  3  4  1  0
  4  5  2  0
  5  6  1  0
  6  7  2  0
  7  2  1  0
M  END
>  <Title>  (420) 
idAAQDgen7

$$$$

     RDKit          2D

 36 41  0  0  0  0  0  0  0  0999 V2000
    3.0000    0.0000    0.0000 C   0  0  0  0  0  0  0  0  0  0  0  0
    1.5000    0.0000    0.0000 C   0  0  0  0  0  0  0  0  0  0  0  0
    0.7500    1.2990    0.0000 C   0  0  0  0  0  0  0  0  0  0  0  0
   -0.7500    1.2990    0.0000 C   0  0  0  0  0  0  0  0  0  0  0  0
   -1.5000    0.0000    0.0000 C   0  0  0  0  0  0  0  0  0  0  0  0
   -3.0000    0.0000    0.0000 C   0  0  0  0  0  0  0  0  0  0  0  0
   -3.8817   -1.2135    0.0000 N   0  0  0  0  0  0  0  0  0  0  0  0
   -5.3083   -0.7500    0.0000 N   0  0  0  0  0  0  0  0  0  0  0  0
   -5.3083    0.7500    0.0000 N   0  0  0  0  0  0  0  0  0  0  0  0
   -3.8817    1.2135    0.0000 N   0  0  0  0  0  0  0  0  0  0  0  0
   -3.4182    2.6401    0.0000 C   0  0  0  0  0  0  0  0  0  0  0  0
   -1.9509    2.9520    0.0000 C   0  0  0  0  0  0  0  0  0  0  0  0
   -1.4874    4.3786    0.0000 C   0  0  0  0  0  0  0  0  0  0  0  0
   -2.4911    5.4933    0.0000 C   0  0  0  0  0  0  0  0  0  0  0  0
   -3.9583    5.1814    0.0000 C   0  0  0  0  0  0  0  0  0  0  0  0
   -4.4218    3.7548    0.0000 C   0  0  0  0  0  0  0  0  0  0  0  0
   -5.8891    3.4430    0.0000 C   0  0  0  0  0  0  0  0  0  0  0  0
   -6.8928    4.5577    0.0000 C   0  0  0  0  0  0  0  0  0  0  0  0
   -8.3600    4.2458    0.0000 C   0  0  0  0  0  0  0  0  0  0  0  0
   -8.8235    2.8192    0.0000 C   0  0  0  0  0  0  0  0  0  0  0  0
  -10.2907    2.5074    0.0000 C   0  0  0  0  0  0  0  0  0  0  0  0
  -10.9008    1.1370    0.0000 N   0  0  0  0  0  0  0  0  0  0  0  0
  -12.3926    1.2938    0.0000 N   0  0  0  0  0  0  0  0  0  0  0  0
  -12.7045    2.7611    0.0000 N   0  0  0  0  0  0  0  0  0  0  0  0
  -11.4055    3.5111    0.0000 N   0  0  0  0  0  0  0  0  0  0  0  0
  -11.2487    5.0028    0.0000 C   0  0  0  0  0  0  0  0  0  0  0  0
   -9.8783    5.6129    0.0000 C   0  0  0  0  0  0  0  0  0  0  0  0
   -9.7215    7.1047    0.0000 C   0  0  0  0  0  0  0  0  0  0  0  0
  -10.9351    7.9864    0.0000 C   0  0  0  0  0  0  0  0  0  0  0  0
  -12.3054    7.3763    0.0000 C   0  0  0  0  0  0  0  0  0  0  0  0
  -12.4622    5.8845    0.0000 C   0  0  0  0  0  0  0  0  0  0  0  0
   -7.8198    1.7045    0.0000 C   0  0  0  0  0  0  0  0  0  0  0  0
   -6.3526    2.0164    0.0000 C   0  0  0  0  0  0  0  0  0  0  0  0
   -0.7500   -1.2990    0.0000 C   0  0  0  0  0  0  0  0  0  0  0  0
   -1.5000   -2.5981    0.0000 O   0  0  0  0  0  0  0  0  0  0  0  0
    0.7500   -1.2990    0.0000 N   0  0  0  0  0  0  0  0  0  0  0  0
  1  2  1  0
  2  3  2  0
  3  4  1  0
  4  5  2  0
  5  6  1  0
  6  7  2  0
  7  8  1  0
  8  9  2  0
  9 10  1  0
 10 11  1  0
 11 12  2  0
 12 13  1  0
 13 14  2  0
 14 15  1  0
 15 16  2  0
 16 17  1  0
 17 18  2  0
 18 19  1  0
 19 20  2  0
 20 21  1  0
 21 22  2  0
 22 23  1  0
 23 24  2  0
 24 25  1  0
 25 26  1  0
 26 27  2  0
 27 28  1  0
 28 29  2  0
 29 30  1  0
 30 31  2  0
 20 32  1  0
 32 33  2  0
  5 34  1  0
 34 35  2  0
 34 36  1  0
 36  2  1  0
 10  6  1  0
 16 11  1  0
 33 17  1  0
 25 21  1  0
 31 26  1  0
M  END
>  <Title>  (421) 
idAAQEgen7

$$$$

     RDKit          2D

 41 47  0  0  0  0  0  0  0  0999 V2000
   -2.1129  -11.1403    0.0000 C   0  0  0  0  0  0  0  0  0  0  0  0
   -3.5684  -10.7774    0.0000 C   0  0  0  0  0  0  0  0  0  0  0  0
   -4.6103  -11.8564    0.0000 C   0  0  0  0  0  0  0  0  0  0  0  0
   -6.0658  -11.4935    0.0000 C   0  0  0  0  0  0  0  0  0  0  0  0
   -6.4792  -10.0516    0.0000 C   0  0  0  0  0  0  0  0  0  0  0  0
   -7.9347   -9.6888    0.0000 C   0  0  0  0  0  0  0  0  0  0  0  0
   -9.0838  -10.6529    0.0000 N   0  0  0  0  0  0  0  0  0  0  0  0
  -10.3558   -9.8581    0.0000 N   0  0  0  0  0  0  0  0  0  0  0  0
   -9.9929   -8.4026    0.0000 N   0  0  0  0  0  0  0  0  0  0  0  0
   -8.4966   -8.2980    0.0000 N   0  0  0  0  0  0  0  0  0  0  0  0
   -7.7017   -7.0259    0.0000 C   0  0  0  0  0  0  0  0  0  0  0  0
   -6.2026   -7.0783    0.0000 C   0  0  0  0  0  0  0  0  0  0  0  0
   -5.4077   -5.8062    0.0000 C   0  0  0  0  0  0  0  0  0  0  0  0
   -6.1120   -4.4818    0.0000 C   0  0  0  0  0  0  0  0  0  0  0  0
   -5.3171   -3.2097    0.0000 C   0  0  0  0  0  0  0  0  0  0  0  0
   -3.8499   -3.5216    0.0000 C   0  0  0  0  0  0  0  0  0  0  0  0
   -2.5254   -2.8174    0.0000 C   0  0  0  0  0  0  0  0  0  0  0  0
   -1.9635   -1.4266    0.0000 C   0  0  0  0  0  0  0  0  0  0  0  0
   -0.7500   -2.3083    0.0000 C   0  0  0  0  0  0  0  0  0  0  0  0
    0.7500   -2.3083    0.0000 C   0  0  0  0  0  0  0  0  0  0  0  0
    1.9635   -1.4266    0.0000 C   0  0  0  0  0  0  0  0  0  0  0  0
    2.4271    0.0000    0.0000 C   0  0  0  0  0  0  0  0  0  0  0  0
    1.9635    1.4266    0.0000 C   0  0  0  0  0  0  0  0  0  0  0  0
    0.7500    2.3083    0.0000 C   0  0  0  0  0  0  0  0  0  0  0  0
   -0.7500    2.3083    0.0000 C   0  0  0  0  0  0  0  0  0  0  0  0
   -1.9635    1.4266    0.0000 C   0  0  0  0  0  0  0  0  0  0  0  0
   -2.4271    0.0000    0.0000 C   0  0  0  0  0  0  0  0  0  0  0  0
   -3.6991    0.7949    0.0000 N   0  0  0  0  0  0  0  0  0  0  0  0
   -5.1845    0.5861    0.0000 N   0  0  0  0  0  0  0  0  0  0  0  0
   -6.1882   -0.5286    0.0000 N   0  0  0  0  0  0  0  0  0  0  0  0
   -6.2406   -2.0277    0.0000 N   0  0  0  0  0  0  0  0  0  0  0  0
   -7.6110   -4.4294    0.0000 C   0  0  0  0  0  0  0  0  0  0  0  0
   -8.4059   -5.7015    0.0000 C   0  0  0  0  0  0  0  0  0  0  0  0
   -9.9050   -5.6491    0.0000 C   0  0  0  0  0  0  0  0  0  0  0  0
  -10.6092   -4.3247    0.0000 C   0  0  0  0  0  0  0  0  0  0  0  0
  -12.1083   -4.2724    0.0000 C   0  0  0  0  0  0  0  0  0  0  0  0
  -12.9032   -5.5444    0.0000 C   0  0  0  0  0  0  0  0  0  0  0  0
  -12.1990   -6.8689    0.0000 C   0  0  0  0  0  0  0  0  0  0  0  0
  -10.6999   -6.9212    0.0000 C   0  0  0  0  0  0  0  0  0  0  0  0
   -5.4373   -8.9726    0.0000 C   0  0  0  0  0  0  0  0  0  0  0  0
   -3.9818   -9.3355    0.0000 C   0  0  0  0  0  0  0  0  0  0  0  0
  1  2  1  0
  2  3  2  0
  3  4  1  0
  4  5  2  0
  5  6  1  0
  6  7  2  0
  7  8  1  0
  8  9  2  0
  9 10  1  0
 10 11  1  0
 11 12  2  0
 12 13  1  0
 13 14  2  0
 14 15  1  0
 15 16  2  0
 16 17  1  0
 17 18  2  0
 18 19  1  0
 19 20  2  0
 20 21  1  0
 21 22  2  0
 22 23  1  0
 23 24  2  0
 24 25  1  0
 25 26  2  0
 26 27  1  0
 27 28  2  0
 28 29  1  0
 29 30  2  0
 30 31  1  0
 14 32  1  0
 32 33  2  0
 33 34  1  0
 34 35  2  0
 35 36  1  0
 36 37  2  0
 37 38  1  0
 38 39  2  0
  5 40  1  0
 40 41  2  0
 41  2  1  0
 10  6  1  0
 33 11  1  0
 39 34  1  0
 31 15  1  0
 27 18  1  0
 31 21  1  0
M  END
>  <Title>  (422) 
idAAQFgen7

$$$$

     RDKit          2D

 22 22  0  0  0  0  0  0  0  0999 V2000
    7.0443   -1.2990    0.0000 C   0  0  0  0  0  0  0  0  0  0  0  0
    6.2943    0.0000    0.0000 O   0  0  0  0  0  0  0  0  0  0  0  0
    4.7943    0.0000    0.0000 C   0  0  0  0  0  0  0  0  0  0  0  0
    4.5597   -1.4815    0.0000 C   0  0  0  0  0  0  0  0  0  0  0  0
    3.8787   -2.8180    0.0000 C   0  0  0  0  0  0  0  0  0  0  0  0
    2.8180   -3.8787    0.0000 C   0  0  0  0  0  0  0  0  0  0  0  0
    1.4815   -4.5597    0.0000 C   0  0  0  0  0  0  0  0  0  0  0  0
   -0.0000   -4.7943    0.0000 C   0  0  0  0  0  0  0  0  0  0  0  0
   -1.4815   -4.5597    0.0000 C   0  0  0  0  0  0  0  0  0  0  0  0
   -2.8180   -3.8787    0.0000 C   0  0  0  0  0  0  0  0  0  0  0  0
   -3.8787   -2.8180    0.0000 C   0  0  0  0  0  0  0  0  0  0  0  0
   -4.5597   -1.4815    0.0000 C   0  0  0  0  0  0  0  0  0  0  0  0
   -4.7943    0.0000    0.0000 C   0  0  0  0  0  0  0  0  0  0  0  0
   -4.5597    1.4815    0.0000 C   0  0  0  0  0  0  0  0  0  0  0  0
   -3.8787    2.8180    0.0000 C   0  0  0  0  0  0  0  0  0  0  0  0
   -2.8180    3.8787    0.0000 C   0  0  0  0  0  0  0  0  0  0  0  0
   -1.4815    4.5597    0.0000 C   0  0  0  0  0  0  0  0  0  0  0  0
    0.0000    4.7943    0.0000 C   0  0  0  0  0  0  0  0  0  0  0  0
    1.4815    4.5597    0.0000 C   0  0  0  0  0  0  0  0  0  0  0  0
    2.8180    3.8787    0.0000 C   0  0  0  0  0  0  0  0  0  0  0  0
    3.8787    2.8180    0.0000 C   0  0  0  0  0  0  0  0  0  0  0  0
    4.5597    1.4815    0.0000 C   0  0  0  0  0  0  0  0  0  0  0  0
  1  2  1  0
  2  3  1  0
  3  4  2  0
  4  5  1  0
  5  6  2  0
  6  7  1  0
  7  8  2  0
  8  9  1  0
  9 10  2  0
 10 11  1  0
 11 12  2  0
 12 13  1  0
 13 14  2  0
 14 15  1  0
 15 16  2  0
 16 17  1  0
 17 18  2  0
 18 19  1  0
 19 20  2  0
 20 21  1  0
 21 22  2  0
 22  3  1  0
M  END
>  <Title>  (423) 
idAAQGgen7

$$$$

     RDKit          2D

 11 12  0  0  0  0  0  0  0  0999 V2000
    3.7500   -1.2990    0.0000 C   0  0  0  0  0  0  0  0  0  0  0  0
    3.0000    0.0000    0.0000 O   0  0  0  0  0  0  0  0  0  0  0  0
    1.5000    0.0000    0.0000 C   0  0  0  0  0  0  0  0  0  0  0  0
    0.7500   -1.2990    0.0000 C   0  0  0  0  0  0  0  0  0  0  0  0
   -0.7500   -1.2990    0.0000 C   0  0  0  0  0  0  0  0  0  0  0  0
   -1.5000    0.0000    0.0000 C   0  0  0  0  0  0  0  0  0  0  0  0
   -0.7500    1.2990    0.0000 C   0  0  0  0  0  0  0  0  0  0  0  0
    0.7500    1.2990    0.0000 C   0  0  0  0  0  0  0  0  0  0  0  0
   -2.0490    2.0490    0.0000 C   0  0  0  0  0  0  0  0  0  0  0  0
   -2.4373    3.4979    0.0000 O   0  0  0  0  0  0  0  0  0  0  0  0
   -2.7990    0.7500    0.0000 N   0  0  0  0  0  0  0  0  0  0  0  0
  1  2  1  0
  2  3  1  0
  3  4  2  0
  4  5  1  0
  5  6  2  0
  6  7  1  0
  7  8  2  0
  7  9  1  0
  9 10  2  0
  9 11  1  0
  8  3  1  0
 11  6  1  0
M  END
>  <Title>  (424) 
idAAQHgen7

$$$$

     RDKit          2D

 38 42  0  0  0  0  0  0  0  0999 V2000
    5.2500    1.2990    0.0000 C   0  0  0  0  0  0  0  0  0  0  0  0
    3.7500    1.2990    0.0000 C   0  0  0  0  0  0  0  0  0  0  0  0
    3.0000    2.5981    0.0000 O   0  0  0  0  0  0  0  0  0  0  0  0
    3.0000    0.0000    0.0000 O   0  0  0  0  0  0  0  0  0  0  0  0
    1.5000    0.0000    0.0000 C   0  0  0  0  0  0  0  0  0  0  0  0
    0.7500    1.2990    0.0000 C   0  0  0  0  0  0  0  0  0  0  0  0
   -0.7500    1.2990    0.0000 C   0  0  0  0  0  0  0  0  0  0  0  0
   -1.5000    0.0000    0.0000 C   0  0  0  0  0  0  0  0  0  0  0  0
   -3.0000    0.0000    0.0000 C   0  0  0  0  0  0  0  0  0  0  0  0
   -3.8817   -1.2135    0.0000 N   0  0  0  0  0  0  0  0  0  0  0  0
   -5.3083   -0.7500    0.0000 N   0  0  0  0  0  0  0  0  0  0  0  0
   -5.3083    0.7500    0.0000 N   0  0  0  0  0  0  0  0  0  0  0  0
   -3.8817    1.2135    0.0000 N   0  0  0  0  0  0  0  0  0  0  0  0
   -3.4182    2.6401    0.0000 C   0  0  0  0  0  0  0  0  0  0  0  0
   -1.9509    2.9520    0.0000 C   0  0  0  0  0  0  0  0  0  0  0  0
   -1.4874    4.3786    0.0000 C   0  0  0  0  0  0  0  0  0  0  0  0
   -2.4911    5.4933    0.0000 C   0  0  0  0  0  0  0  0  0  0  0  0
   -2.0276    6.9199    0.0000 C   0  0  0  0  0  0  0  0  0  0  0  0
   -0.5604    7.2317    0.0000 C   0  0  0  0  0  0  0  0  0  0  0  0
   -0.0968    8.6583    0.0000 C   0  0  0  0  0  0  0  0  0  0  0  0
   -1.1005    9.7730    0.0000 C   0  0  0  0  0  0  0  0  0  0  0  0
   -2.5677    9.4612    0.0000 C   0  0  0  0  0  0  0  0  0  0  0  0
   -3.0313    8.0346    0.0000 C   0  0  0  0  0  0  0  0  0  0  0  0
   -3.9583    5.1814    0.0000 C   0  0  0  0  0  0  0  0  0  0  0  0
   -4.4218    3.7548    0.0000 C   0  0  0  0  0  0  0  0  0  0  0  0
   -5.8891    3.4430    0.0000 C   0  0  0  0  0  0  0  0  0  0  0  0
   -6.8928    4.5577    0.0000 C   0  0  0  0  0  0  0  0  0  0  0  0
   -8.3600    4.2458    0.0000 C   0  0  0  0  0  0  0  0  0  0  0  0
   -8.8235    2.8192    0.0000 C   0  0  0  0  0  0  0  0  0  0  0  0
  -10.2907    2.5074    0.0000 C   0  0  0  0  0  0  0  0  0  0  0  0
  -10.7543    1.0808    0.0000 O   0  0  0  0  0  0  0  0  0  0  0  0
  -11.2944    3.6221    0.0000 N   0  0  0  0  0  0  0  0  0  0  0  0
  -12.7617    3.3102    0.0000 O   0  0  0  0  0  0  0  0  0  0  0  0
   -7.8198    1.7045    0.0000 C   0  0  0  0  0  0  0  0  0  0  0  0
   -6.3526    2.0164    0.0000 C   0  0  0  0  0  0  0  0  0  0  0  0
   -0.7500   -1.2990    0.0000 C   0  0  0  0  0  0  0  0  0  0  0  0
   -1.5000   -2.5981    0.0000 O   0  0  0  0  0  0  0  0  0  0  0  0
    0.7500   -1.2990    0.0000 N   0  0  0  0  0  0  0  0  0  0  0  0
  1  2  1  0
  2  3  2  0
  2  4  1  0
  4  5  1  0
  5  6  2  0
  6  7  1  0
  7  8  2  0
  8  9  1  0
  9 10  2  0
 10 11  1  0
 11 12  2  0
 12 13  1  0
 13 14  1  0
 14 15  2  0
 15 16  1  0
 16 17  2  0
 17 18  1  0
 18 19  2  0
 19 20  1  0
 20 21  2  0
 21 22  1  0
 22 23  2  0
 17 24  1  0
 24 25  2  0
 25 26  1  0
 26 27  2  0
 27 28  1  0
 28 29  2  0
 29 30  1  0
 30 31  2  0
 30 32  1  0
 32 33  1  0
 29 34  1  0
 34 35  1  0
  8 36  1  0
 36 37  2  0
 36 38  1  0
 38  5  1  0
 13  9  1  0
 25 14  1  0
 35 26  1  0
 23 18  1  0
M  END
>  <Title>  (425) 
idAAQIgen7

$$$$

     RDKit          2D

 42 48  0  0  0  0  0  0  0  0999 V2000
   -0.0289   -0.9578    0.0000 C   0  0  0  0  0  0  0  0  0  0  0  0
    0.0757   -2.4542    0.0000 C   0  0  0  0  0  0  0  0  0  0  0  0
   -1.0733   -3.4183    0.0000 C   0  0  0  0  0  0  0  0  0  0  0  0
   -0.5114   -4.8091    0.0000 C   0  0  0  0  0  0  0  0  0  0  0  0
    0.9849   -4.7045    0.0000 C   0  0  0  0  0  0  0  0  0  0  0  0
    1.9491   -5.8536    0.0000 C   0  0  0  0  0  0  0  0  0  0  0  0
    3.4454   -5.7489    0.0000 N   0  0  0  0  0  0  0  0  0  0  0  0
    4.0073   -7.1397    0.0000 N   0  0  0  0  0  0  0  0  0  0  0  0
    2.8583   -8.1039    0.0000 N   0  0  0  0  0  0  0  0  0  0  0  0
    1.5862   -7.3090    0.0000 N   0  0  0  0  0  0  0  0  0  0  0  0
    0.1954   -7.8709    0.0000 C   0  0  0  0  0  0  0  0  0  0  0  0
   -0.1674   -9.3263    0.0000 C   0  0  0  0  0  0  0  0  0  0  0  0
   -1.6638   -9.4310    0.0000 C   0  0  0  0  0  0  0  0  0  0  0  0
   -2.2257   -8.0402    0.0000 C   0  0  0  0  0  0  0  0  0  0  0  0
   -3.6811   -7.6773    0.0000 C   0  0  0  0  0  0  0  0  0  0  0  0
   -4.7231   -8.7563    0.0000 O   0  0  0  0  0  0  0  0  0  0  0  0
   -4.0946   -6.2354    0.0000 N   0  0  0  0  0  0  0  0  0  0  0  0
   -5.5500   -5.8725    0.0000 C   0  0  0  0  0  0  0  0  0  0  0  0
   -6.6991   -6.8367    0.0000 N   0  0  0  0  0  0  0  0  0  0  0  0
   -7.9712   -6.0419    0.0000 N   0  0  0  0  0  0  0  0  0  0  0  0
   -7.6083   -4.5864    0.0000 N   0  0  0  0  0  0  0  0  0  0  0  0
   -6.1120   -4.4818    0.0000 N   0  0  0  0  0  0  0  0  0  0  0  0
   -5.3171   -3.2097    0.0000 C   0  0  0  0  0  0  0  0  0  0  0  0
   -6.2406   -2.0277    0.0000 C   0  0  0  0  0  0  0  0  0  0  0  0
   -6.1882   -0.5286    0.0000 C   0  0  0  0  0  0  0  0  0  0  0  0
   -5.1845    0.5861    0.0000 C   0  0  0  0  0  0  0  0  0  0  0  0
   -6.5089    1.2903    0.0000 C   0  0  0  0  0  0  0  0  0  0  0  0
   -7.1665    2.6385    0.0000 C   0  0  0  0  0  0  0  0  0  0  0  0
   -6.9060    4.1157    0.0000 C   0  0  0  0  0  0  0  0  0  0  0  0
   -5.8270    5.1577    0.0000 C   0  0  0  0  0  0  0  0  0  0  0  0
   -4.3416    5.3665    0.0000 C   0  0  0  0  0  0  0  0  0  0  0  0
   -3.0172    4.6623    0.0000 C   0  0  0  0  0  0  0  0  0  0  0  0
   -2.3596    3.3141    0.0000 C   0  0  0  0  0  0  0  0  0  0  0  0
   -2.6201    1.8369    0.0000 C   0  0  0  0  0  0  0  0  0  0  0  0
   -3.6991    0.7949    0.0000 C   0  0  0  0  0  0  0  0  0  0  0  0
   -2.4271    0.0000    0.0000 N   0  0  0  0  0  0  0  0  0  0  0  0
   -1.9635   -1.4266    0.0000 N   0  0  0  0  0  0  0  0  0  0  0  0
   -2.5254   -2.8174    0.0000 N   0  0  0  0  0  0  0  0  0  0  0  0
   -3.8499   -3.5216    0.0000 N   0  0  0  0  0  0  0  0  0  0  0  0
   -1.0766   -7.0760    0.0000 C   0  0  0  0  0  0  0  0  0  0  0  0
   -1.1813   -5.5797    0.0000 O   0  0  0  0  0  0  0  0  0  0  0  0
    1.3478   -3.2490    0.0000 C   0  0  0  0  0  0  0  0  0  0  0  0
  1  2  1  0
  2  3  2  0
  3  4  1  0
  4  5  2  0
  5  6  1  0
  6  7  2  0
  7  8  1  0
  8  9  2  0
  9 10  1  0
 10 11  1  0
 11 12  2  0
 12 13  1  0
 13 14  2  0
 14 15  1  0
 15 16  2  0
 15 17  1  0
 17 18  1  0
 18 19  2  0
 19 20  1  0
 20 21  2  0
 21 22  1  0
 22 23  1  0
 23 24  2  0
 24 25  1  0
 25 26  2  0
 26 27  1  0
 27 28  1  0
 28 29  1  0
 29 30  2  0
 30 31  1  0
 31 32  2  0
 32 33  1  0
 33 34  2  0
 34 35  1  0
 35 36  2  0
 36 37  1  0
 37 38  2  0
 38 39  1  0
 14 40  1  0
 40 41  2  0
  5 42  1  0
 42  2  1  0
 10  6  1  0
 40 11  1  0
 22 18  1  0
 39 23  1  0
 35 26  1  0
 39 29  1  0
M  END
>  <Title>  (426) 
idAAQJgen7

$$$$

     RDKit          2D

 30 33  0  0  0  0  0  0  0  0999 V2000
   -6.0000   -7.7942    0.0000 C   0  0  0  0  0  0  0  0  0  0  0  0
   -5.2500   -6.4952    0.0000 C   0  0  0  0  0  0  0  0  0  0  0  0
   -3.7500   -6.4952    0.0000 O   0  0  0  0  0  0  0  0  0  0  0  0
   -6.0000   -5.1962    0.0000 O   0  0  0  0  0  0  0  0  0  0  0  0
   -5.2500   -3.8971    0.0000 C   0  0  0  0  0  0  0  0  0  0  0  0
   -3.7500   -3.8971    0.0000 C   0  0  0  0  0  0  0  0  0  0  0  0
   -3.0000   -2.5981    0.0000 C   0  0  0  0  0  0  0  0  0  0  0  0
   -3.7500   -1.2990    0.0000 C   0  0  0  0  0  0  0  0  0  0  0  0
   -3.0000    0.0000    0.0000 C   0  0  0  0  0  0  0  0  0  0  0  0
   -1.5000    0.0000    0.0000 O   0  0  0  0  0  0  0  0  0  0  0  0
   -3.7500    1.2990    0.0000 C   0  0  0  0  0  0  0  0  0  0  0  0
   -5.2418    1.4558    0.0000 N   0  0  0  0  0  0  0  0  0  0  0  0
   -5.5537    2.9231    0.0000 N   0  0  0  0  0  0  0  0  0  0  0  0
   -4.2546    3.6731    0.0000 N   0  0  0  0  0  0  0  0  0  0  0  0
   -3.1399    2.6694    0.0000 N   0  0  0  0  0  0  0  0  0  0  0  0
   -1.6727    2.9812    0.0000 C   0  0  0  0  0  0  0  0  0  0  0  0
   -0.6690    1.8665    0.0000 C   0  0  0  0  0  0  0  0  0  0  0  0
    0.7982    2.1784    0.0000 C   0  0  0  0  0  0  0  0  0  0  0  0
    1.2618    3.6050    0.0000 C   0  0  0  0  0  0  0  0  0  0  0  0
    2.7290    3.9168    0.0000 C   0  0  0  0  0  0  0  0  0  0  0  0
    3.3391    5.2871    0.0000 C   0  0  0  0  0  0  0  0  0  0  0  0
    4.8309    5.1304    0.0000 C   0  0  0  0  0  0  0  0  0  0  0  0
    5.1427    3.6631    0.0000 C   0  0  0  0  0  0  0  0  0  0  0  0
    6.5131    3.0530    0.0000 N   0  0  0  0  0  0  0  0  0  0  0  0
    3.8437    2.9131    0.0000 C   0  0  0  0  0  0  0  0  0  0  0  0
    3.6869    1.4213    0.0000 O   0  0  0  0  0  0  0  0  0  0  0  0
    0.2581    4.7197    0.0000 C   0  0  0  0  0  0  0  0  0  0  0  0
   -1.2091    4.4078    0.0000 C   0  0  0  0  0  0  0  0  0  0  0  0
   -5.2500   -1.2990    0.0000 C   0  0  0  0  0  0  0  0  0  0  0  0
   -6.0000   -2.5981    0.0000 C   0  0  0  0  0  0  0  0  0  0  0  0
  1  2  1  0
  2  3  2  0
  2  4  1  0
  4  5  1  0
  5  6  2  0
  6  7  1  0
  7  8  2  0
  8  9  1  0
  9 10  2  0
  9 11  1  0
 11 12  2  0
 12 13  1  0
 13 14  2  0
 14 15  1  0
 15 16  1  0
 16 17  2  0
 17 18  1  0
 18 19  2  0
 19 20  1  0
 20 21  2  0
 21 22  1  0
 22 23  2  0
 23 24  1  0
 23 25  1  0
 25 26  2  0
 19 27  1  0
 27 28  2  0
  8 29  1  0
 29 30  2  0
 30  5  1  0
 15 11  1  0
 28 16  1  0
 25 20  1  0
M  END
>  <Title>  (427) 
idAAQKgen7

$$$$

     RDKit          2D

 57 65  0  0  0  0  0  0  0  0999 V2000
    3.0000    0.0000    0.0000 C   0  0  0  0  0  0  0  0  0  0  0  0
    1.5000    0.0000    0.0000 C   0  0  0  0  0  0  0  0  0  0  0  0
    0.7500   -1.2990    0.0000 C   0  0  0  0  0  0  0  0  0  0  0  0
   -0.7500   -1.2990    0.0000 C   0  0  0  0  0  0  0  0  0  0  0  0
   -1.5000    0.0000    0.0000 C   0  0  0  0  0  0  0  0  0  0  0  0
   -3.0000    0.0000    0.0000 C   0  0  0  0  0  0  0  0  0  0  0  0
   -3.8817   -1.2135    0.0000 N   0  0  0  0  0  0  0  0  0  0  0  0
   -5.3083   -0.7500    0.0000 N   0  0  0  0  0  0  0  0  0  0  0  0
   -5.3083    0.7500    0.0000 N   0  0  0  0  0  0  0  0  0  0  0  0
   -3.8817    1.2135    0.0000 N   0  0  0  0  0  0  0  0  0  0  0  0
   -3.4182    2.6401    0.0000 C   0  0  0  0  0  0  0  0  0  0  0  0
   -1.9509    2.9520    0.0000 C   0  0  0  0  0  0  0  0  0  0  0  0
   -1.4874    4.3786    0.0000 C   0  0  0  0  0  0  0  0  0  0  0  0
   -2.4911    5.4933    0.0000 C   0  0  0  0  0  0  0  0  0  0  0  0
   -2.0276    6.9199    0.0000 C   0  0  0  0  0  0  0  0  0  0  0  0
   -0.5604    7.2317    0.0000 C   0  0  0  0  0  0  0  0  0  0  0  0
   -0.0968    8.6583    0.0000 C   0  0  0  0  0  0  0  0  0  0  0  0
   -1.1005    9.7730    0.0000 C   0  0  0  0  0  0  0  0  0  0  0  0
   -0.6370   11.1996    0.0000 C   0  0  0  0  0  0  0  0  0  0  0  0
    0.8302   11.5115    0.0000 C   0  0  0  0  0  0  0  0  0  0  0  0
    1.2937   12.9381    0.0000 C   0  0  0  0  0  0  0  0  0  0  0  0
    0.2901   14.0528    0.0000 C   0  0  0  0  0  0  0  0  0  0  0  0
   -1.1772   13.7409    0.0000 C   0  0  0  0  0  0  0  0  0  0  0  0
   -1.6407   12.3143    0.0000 C   0  0  0  0  0  0  0  0  0  0  0  0
   -2.5677    9.4612    0.0000 C   0  0  0  0  0  0  0  0  0  0  0  0
   -3.0313    8.0346    0.0000 C   0  0  0  0  0  0  0  0  0  0  0  0
   -4.4985    7.7227    0.0000 C   0  0  0  0  0  0  0  0  0  0  0  0
   -5.1086    6.3524    0.0000 N   0  0  0  0  0  0  0  0  0  0  0  0
   -6.6004    6.5092    0.0000 N   0  0  0  0  0  0  0  0  0  0  0  0
   -6.9122    7.9764    0.0000 N   0  0  0  0  0  0  0  0  0  0  0  0
   -5.6132    8.7264    0.0000 N   0  0  0  0  0  0  0  0  0  0  0  0
   -5.4564   10.2182    0.0000 C   0  0  0  0  0  0  0  0  0  0  0  0
   -4.0861   10.8283    0.0000 C   0  0  0  0  0  0  0  0  0  0  0  0
   -3.9293   12.3201    0.0000 C   0  0  0  0  0  0  0  0  0  0  0  0
   -5.1428   13.2018    0.0000 C   0  0  0  0  0  0  0  0  0  0  0  0
   -6.5132   12.5917    0.0000 C   0  0  0  0  0  0  0  0  0  0  0  0
   -6.6699   11.0999    0.0000 C   0  0  0  0  0  0  0  0  0  0  0  0
   -3.9583    5.1814    0.0000 C   0  0  0  0  0  0  0  0  0  0  0  0
   -4.4218    3.7548    0.0000 C   0  0  0  0  0  0  0  0  0  0  0  0
   -5.8891    3.4430    0.0000 C   0  0  0  0  0  0  0  0  0  0  0  0
   -6.8928    4.5577    0.0000 C   0  0  0  0  0  0  0  0  0  0  0  0
   -8.3600    4.2458    0.0000 C   0  0  0  0  0  0  0  0  0  0  0  0
   -8.8235    2.8192    0.0000 C   0  0  0  0  0  0  0  0  0  0  0  0
  -10.2907    2.5074    0.0000 N   0  0  0  0  0  0  0  0  0  0  0  0
  -11.2944    3.6221    0.0000 C   0  0  0  0  0  0  0  0  0  0  0  0
  -10.8309    5.0487    0.0000 O   0  0  0  0  0  0  0  0  0  0  0  0
  -12.7617    3.3102    0.0000 N   0  0  0  0  0  0  0  0  0  0  0  0
  -13.7653    4.4249    0.0000 C   0  0  0  0  0  0  0  0  0  0  0  0
  -13.3018    5.8515    0.0000 C   0  0  0  0  0  0  0  0  0  0  0  0
  -14.3055    6.9662    0.0000 C   0  0  0  0  0  0  0  0  0  0  0  0
  -15.7727    6.6544    0.0000 C   0  0  0  0  0  0  0  0  0  0  0  0
  -16.2363    5.2278    0.0000 C   0  0  0  0  0  0  0  0  0  0  0  0
  -15.2326    4.1131    0.0000 C   0  0  0  0  0  0  0  0  0  0  0  0
   -7.8198    1.7045    0.0000 C   0  0  0  0  0  0  0  0  0  0  0  0
   -6.3526    2.0164    0.0000 C   0  0  0  0  0  0  0  0  0  0  0  0
   -0.7500    1.2990    0.0000 C   0  0  0  0  0  0  0  0  0  0  0  0
    0.7500    1.2990    0.0000 C   0  0  0  0  0  0  0  0  0  0  0  0
  1  2  1  0
  2  3  2  0
  3  4  1  0
  4  5  2  0
  5  6  1  0
  6  7  2  0
  7  8  1  0
  8  9  2  0
  9 10  1  0
 10 11  1  0
 11 12  2  0
 12 13  1  0
 13 14  2  0
 14 15  1  0
 15 16  2  0
 16 17  1  0
 17 18  2  0
 18 19  1  0
 19 20  2  0
 20 21  1  0
 21 22  2  0
 22 23  1  0
 23 24  2  0
 18 25  1  0
 25 26  2  0
 26 27  1  0
 27 28  2  0
 28 29  1  0
 29 30  2  0
 30 31  1  0
 31 32  1  0
 32 33  2  0
 33 34  1  0
 34 35  2  0
 35 36  1  0
 36 37  2  0
 14 38  1  0
 38 39  2  0
 39 40  1  0
 40 41  2  0
 41 42  1  0
 42 43  2  0
 43 44  1  0
 44 45  1  0
 45 46  2  0
 45 47  1  0
 47 48  1  0
 48 49  2  0
 49 50  1  0
 50 51  2  0
 51 52  1  0
 52 53  2  0
 43 54  1  0
 54 55  2  0
  5 56  1  0
 56 57  2  0
 57  2  1  0
 10  6  1  0
 39 11  1  0
 55 40  1  0
 26 15  1  0
 31 27  1  0
 37 32  1  0
 53 48  1  0
 24 19  1  0
M  END
>  <Title>  (428) 
idAAQLgen7

$$$$

     RDKit          2D

 32 35  0  0  0  0  0  0  0  0999 V2000
    3.7500   -1.2990    0.0000 C   0  0  0  0  0  0  0  0  0  0  0  0
    3.0000    0.0000    0.0000 O   0  0  0  0  0  0  0  0  0  0  0  0
    1.5000    0.0000    0.0000 C   0  0  0  0  0  0  0  0  0  0  0  0
    0.7500   -1.2990    0.0000 C   0  0  0  0  0  0  0  0  0  0  0  0
   -0.7500   -1.2990    0.0000 C   0  0  0  0  0  0  0  0  0  0  0  0
   -1.5000    0.0000    0.0000 C   0  0  0  0  0  0  0  0  0  0  0  0
   -3.0000    0.0000    0.0000 N   0  0  0  0  0  0  0  0  0  0  0  0
   -3.7500    1.2990    0.0000 C   0  0  0  0  0  0  0  0  0  0  0  0
   -3.0000    2.5981    0.0000 O   0  0  0  0  0  0  0  0  0  0  0  0
   -5.2500    1.2990    0.0000 C   0  0  0  0  0  0  0  0  0  0  0  0
   -6.0000    2.5981    0.0000 C   0  0  0  0  0  0  0  0  0  0  0  0
   -7.5000    2.5981    0.0000 C   0  0  0  0  0  0  0  0  0  0  0  0
   -8.2500    1.2990    0.0000 C   0  0  0  0  0  0  0  0  0  0  0  0
   -9.7500    1.2990    0.0000 C   0  0  0  0  0  0  0  0  0  0  0  0
  -10.5000    0.0000    0.0000 O   0  0  0  0  0  0  0  0  0  0  0  0
  -10.5000    2.5981    0.0000 N   0  0  0  0  0  0  0  0  0  0  0  0
  -12.0000    2.5981    0.0000 C   0  0  0  0  0  0  0  0  0  0  0  0
  -12.8817    1.3846    0.0000 N   0  0  0  0  0  0  0  0  0  0  0  0
  -14.3083    1.8481    0.0000 N   0  0  0  0  0  0  0  0  0  0  0  0
  -14.3083    3.3481    0.0000 N   0  0  0  0  0  0  0  0  0  0  0  0
  -12.8817    3.8116    0.0000 N   0  0  0  0  0  0  0  0  0  0  0  0
  -12.4182    5.2382    0.0000 C   0  0  0  0  0  0  0  0  0  0  0  0
  -10.9509    5.5501    0.0000 C   0  0  0  0  0  0  0  0  0  0  0  0
  -10.4874    6.9766    0.0000 C   0  0  0  0  0  0  0  0  0  0  0  0
  -11.4911    8.0914    0.0000 C   0  0  0  0  0  0  0  0  0  0  0  0
  -12.9583    7.7795    0.0000 C   0  0  0  0  0  0  0  0  0  0  0  0
  -13.4218    6.3529    0.0000 C   0  0  0  0  0  0  0  0  0  0  0  0
   -7.5000    0.0000    0.0000 C   0  0  0  0  0  0  0  0  0  0  0  0
   -6.0000    0.0000    0.0000 C   0  0  0  0  0  0  0  0  0  0  0  0
   -0.7500    1.2990    0.0000 C   0  0  0  0  0  0  0  0  0  0  0  0
   -1.5000    2.5981    0.0000 O   0  0  0  0  0  0  0  0  0  0  0  0
    0.7500    1.2990    0.0000 N   0  0  0  0  0  0  0  0  0  0  0  0
  1  2  1  0
  2  3  1  0
  3  4  2  0
  4  5  1  0
  5  6  2  0
  6  7  1  0
  7  8  1  0
  8  9  2  0
  8 10  1  0
 10 11  2  0
 11 12  1  0
 12 13  2  0
 13 14  1  0
 14 15  2  0
 14 16  1  0
 16 17  1  0
 17 18  2  0
 18 19  1  0
 19 20  2  0
 20 21  1  0
 21 22  1  0
 22 23  2  0
 23 24  1  0
 24 25  2  0
 25 26  1  0
 26 27  2  0
 13 28  1  0
 28 29  2  0
  6 30  1  0
 30 31  2  0
 30 32  1  0
 32  3  1  0
 29 10  1  0
 21 17  1  0
 27 22  1  0
M  END
>  <Title>  (429) 
idAAQMgen7

$$$$

     RDKit          2D

 54 62  0  0  0  0  0  0  0  0999 V2000
    3.0000    0.0000    0.0000 C   0  0  0  0  0  0  0  0  0  0  0  0
    1.5000    0.0000    0.0000 C   0  0  0  0  0  0  0  0  0  0  0  0
    0.7500   -1.2990    0.0000 C   0  0  0  0  0  0  0  0  0  0  0  0
   -0.7500   -1.2990    0.0000 C   0  0  0  0  0  0  0  0  0  0  0  0
   -1.5000    0.0000    0.0000 C   0  0  0  0  0  0  0  0  0  0  0  0
   -3.0000    0.0000    0.0000 C   0  0  0  0  0  0  0  0  0  0  0  0
   -3.8817   -1.2135    0.0000 N   0  0  0  0  0  0  0  0  0  0  0  0
   -5.3083   -0.7500    0.0000 N   0  0  0  0  0  0  0  0  0  0  0  0
   -5.3083    0.7500    0.0000 N   0  0  0  0  0  0  0  0  0  0  0  0
   -3.8817    1.2135    0.0000 N   0  0  0  0  0  0  0  0  0  0  0  0
   -3.4182    2.6401    0.0000 C   0  0  0  0  0  0  0  0  0  0  0  0
   -1.9509    2.9520    0.0000 C   0  0  0  0  0  0  0  0  0  0  0  0
   -1.4874    4.3786    0.0000 C   0  0  0  0  0  0  0  0  0  0  0  0
   -2.4911    5.4933    0.0000 C   0  0  0  0  0  0  0  0  0  0  0  0
   -2.0276    6.9199    0.0000 C   0  0  0  0  0  0  0  0  0  0  0  0
   -2.9093    8.1334    0.0000 N   0  0  0  0  0  0  0  0  0  0  0  0
   -2.0276    9.3469    0.0000 N   0  0  0  0  0  0  0  0  0  0  0  0
   -0.6010    8.8834    0.0000 N   0  0  0  0  0  0  0  0  0  0  0  0
   -0.6010    7.3834    0.0000 N   0  0  0  0  0  0  0  0  0  0  0  0
    0.6125    6.5017    0.0000 C   0  0  0  0  0  0  0  0  0  0  0  0
    0.4557    5.0099    0.0000 C   0  0  0  0  0  0  0  0  0  0  0  0
    1.6693    4.1283    0.0000 C   0  0  0  0  0  0  0  0  0  0  0  0
    3.0396    4.7384    0.0000 C   0  0  0  0  0  0  0  0  0  0  0  0
    4.2531    3.8567    0.0000 C   0  0  0  0  0  0  0  0  0  0  0  0
    4.0963    2.3649    0.0000 C   0  0  0  0  0  0  0  0  0  0  0  0
    5.3098    1.4832    0.0000 C   0  0  0  0  0  0  0  0  0  0  0  0
    6.6802    2.0933    0.0000 C   0  0  0  0  0  0  0  0  0  0  0  0
    6.8370    3.5851    0.0000 C   0  0  0  0  0  0  0  0  0  0  0  0
    5.6234    4.4668    0.0000 C   0  0  0  0  0  0  0  0  0  0  0  0
    3.1964    6.2301    0.0000 C   0  0  0  0  0  0  0  0  0  0  0  0
    1.9829    7.1118    0.0000 C   0  0  0  0  0  0  0  0  0  0  0  0
    2.1396    8.6036    0.0000 C   0  0  0  0  0  0  0  0  0  0  0  0
    0.9261    9.4853    0.0000 C   0  0  0  0  0  0  0  0  0  0  0  0
    1.0829   10.9771    0.0000 C   0  0  0  0  0  0  0  0  0  0  0  0
    2.4532   11.5872    0.0000 C   0  0  0  0  0  0  0  0  0  0  0  0
    2.6100   13.0789    0.0000 C   0  0  0  0  0  0  0  0  0  0  0  0
    1.3965   13.9606    0.0000 C   0  0  0  0  0  0  0  0  0  0  0  0
    1.5533   15.4524    0.0000 C   0  0  0  0  0  0  0  0  0  0  0  0
    2.9236   16.0625    0.0000 C   0  0  0  0  0  0  0  0  0  0  0  0
    4.1371   15.1808    0.0000 C   0  0  0  0  0  0  0  0  0  0  0  0
    3.9803   13.6891    0.0000 C   0  0  0  0  0  0  0  0  0  0  0  0
    3.6668   10.7055    0.0000 C   0  0  0  0  0  0  0  0  0  0  0  0
    3.5100    9.2137    0.0000 C   0  0  0  0  0  0  0  0  0  0  0  0
    4.7235    8.3320    0.0000 C   0  0  0  0  0  0  0  0  0  0  0  0
    6.0938    8.9421    0.0000 C   0  0  0  0  0  0  0  0  0  0  0  0
    7.3073    8.0605    0.0000 C   0  0  0  0  0  0  0  0  0  0  0  0
    7.1505    6.5687    0.0000 C   0  0  0  0  0  0  0  0  0  0  0  0
    5.7802    5.9586    0.0000 C   0  0  0  0  0  0  0  0  0  0  0  0
    4.5667    6.8402    0.0000 C   0  0  0  0  0  0  0  0  0  0  0  0
   -3.9583    5.1814    0.0000 C   0  0  0  0  0  0  0  0  0  0  0  0
   -4.9620    6.2961    0.0000 O   0  0  0  0  0  0  0  0  0  0  0  0
   -4.4218    3.7548    0.0000 N   0  0  0  0  0  0  0  0  0  0  0  0
   -0.7500    1.2990    0.0000 N   0  0  0  0  0  0  0  0  0  0  0  0
    0.7500    1.2990    0.0000 N   0  0  0  0  0  0  0  0  0  0  0  0
  1  2  1  0
  2  3  2  0
  3  4  1  0
  4  5  2  0
  5  6  1  0
  6  7  2  0
  7  8  1  0
  8  9  2  0
  9 10  1  0
 10 11  1  0
 11 12  2  0
 12 13  1  0
 13 14  2  0
 14 15  1  0
 15 16  2  0
 16 17  1  0
 17 18  2  0
 18 19  1  0
 19 20  1  0
 20 21  2  0
 21 22  1  0
 22 23  2  0
 23 24  1  0
 24 25  2  0
 25 26  1  0
 26 27  2  0
 27 28  1  0
 28 29  2  0
 23 30  1  0
 30 31  2  0
 31 32  1  0
 32 33  2  0
 33 34  1  0
 34 35  2  0
 35 36  1  0
 36 37  2  0
 37 38  1  0
 38 39  2  0
 39 40  1  0
 40 41  2  0
 35 42  1  0
 42 43  2  0
 43 44  1  0
 44 45  2  0
 45 46  1  0
 46 47  2  0
 47 48  1  0
 48 49  2  0
 14 50  1  0
 50 51  2  0
 50 52  1  0
  5 53  1  0
 53 54  2  0
 54  2  1  0
 10  6  1  0
 52 11  1  0
 19 15  1  0
 31 20  1  0
 43 32  1  0
 49 44  1  0
 29 24  1  0
 41 36  1  0
M  END
>  <Title>  (430) 
idAAQNgen7

$$$$

     RDKit          2D

 12 12  0  0  0  0  0  0  0  0999 V2000
    4.6771   -1.2990    0.0000 C   0  0  0  0  0  0  0  0  0  0  0  0
    3.9271    0.0000    0.0000 O   0  0  0  0  0  0  0  0  0  0  0  0
    2.4271    0.0000    0.0000 C   0  0  0  0  0  0  0  0  0  0  0  0
    1.9635   -1.4266    0.0000 C   0  0  0  0  0  0  0  0  0  0  0  0
    0.7500   -2.3083    0.0000 C   0  0  0  0  0  0  0  0  0  0  0  0
   -0.7500   -2.3083    0.0000 C   0  0  0  0  0  0  0  0  0  0  0  0
   -1.9635   -1.4266    0.0000 C   0  0  0  0  0  0  0  0  0  0  0  0
   -2.4271    0.0000    0.0000 C   0  0  0  0  0  0  0  0  0  0  0  0
   -1.9635    1.4266    0.0000 C   0  0  0  0  0  0  0  0  0  0  0  0
   -0.7500    2.3083    0.0000 C   0  0  0  0  0  0  0  0  0  0  0  0
    0.7500    2.3083    0.0000 C   0  0  0  0  0  0  0  0  0  0  0  0
    1.9635    1.4266    0.0000 C   0  0  0  0  0  0  0  0  0  0  0  0
  1  2  1  0
  2  3  1  0
  3  4  2  0
  4  5  1  0
  5  6  2  0
  6  7  1  0
  7  8  2  0
  8  9  1  0
  9 10  2  0
 10 11  1  0
 11 12  2  0
 12  3  1  0
M  END
>  <Title>  (431) 
idAAQOgen7

$$$$

     RDKit          2D

 38 43  0  0  0  0  0  0  0  0999 V2000
    3.0000    0.0000    0.0000 C   0  0  0  0  0  0  0  0  0  0  0  0
    1.5000    0.0000    0.0000 C   0  0  0  0  0  0  0  0  0  0  0  0
    0.7500    1.2990    0.0000 C   0  0  0  0  0  0  0  0  0  0  0  0
   -0.7500    1.2990    0.0000 C   0  0  0  0  0  0  0  0  0  0  0  0
   -1.5000    0.0000    0.0000 C   0  0  0  0  0  0  0  0  0  0  0  0
   -3.0000    0.0000    0.0000 C   0  0  0  0  0  0  0  0  0  0  0  0
   -3.8817   -1.2135    0.0000 N   0  0  0  0  0  0  0  0  0  0  0  0
   -5.3083   -0.7500    0.0000 N   0  0  0  0  0  0  0  0  0  0  0  0
   -5.3083    0.7500    0.0000 N   0  0  0  0  0  0  0  0  0  0  0  0
   -3.8817    1.2135    0.0000 N   0  0  0  0  0  0  0  0  0  0  0  0
   -3.4182    2.6401    0.0000 C   0  0  0  0  0  0  0  0  0  0  0  0
   -1.9509    2.9520    0.0000 C   0  0  0  0  0  0  0  0  0  0  0  0
   -1.4874    4.3786    0.0000 C   0  0  0  0  0  0  0  0  0  0  0  0
   -2.4911    5.4933    0.0000 C   0  0  0  0  0  0  0  0  0  0  0  0
   -2.0276    6.9199    0.0000 C   0  0  0  0  0  0  0  0  0  0  0  0
   -2.9093    8.1334    0.0000 N   0  0  0  0  0  0  0  0  0  0  0  0
   -2.0276    9.3469    0.0000 N   0  0  0  0  0  0  0  0  0  0  0  0
   -0.6010    8.8834    0.0000 N   0  0  0  0  0  0  0  0  0  0  0  0
   -0.6010    7.3834    0.0000 N   0  0  0  0  0  0  0  0  0  0  0  0
    0.6125    6.5017    0.0000 C   0  0  0  0  0  0  0  0  0  0  0  0
    0.4557    5.0099    0.0000 C   0  0  0  0  0  0  0  0  0  0  0  0
    1.6693    4.1283    0.0000 C   0  0  0  0  0  0  0  0  0  0  0  0
    3.0396    4.7384    0.0000 C   0  0  0  0  0  0  0  0  0  0  0  0
    3.1964    6.2301    0.0000 C   0  0  0  0  0  0  0  0  0  0  0  0
    1.9829    7.1118    0.0000 C   0  0  0  0  0  0  0  0  0  0  0  0
   -3.9583    5.1814    0.0000 C   0  0  0  0  0  0  0  0  0  0  0  0
   -4.4218    3.7548    0.0000 C   0  0  0  0  0  0  0  0  0  0  0  0
   -5.8891    3.4430    0.0000 C   0  0  0  0  0  0  0  0  0  0  0  0
   -6.8928    4.5577    0.0000 C   0  0  0  0  0  0  0  0  0  0  0  0
   -8.3600    4.2458    0.0000 C   0  0  0  0  0  0  0  0  0  0  0  0
   -8.8235    2.8192    0.0000 C   0  0  0  0  0  0  0  0  0  0  0  0
  -10.2907    2.5074    0.0000 C   0  0  0  0  0  0  0  0  0  0  0  0
   -7.8198    1.7045    0.0000 C   0  0  0  0  0  0  0  0  0  0  0  0
   -8.2833    0.2779    0.0000 O   0  0  0  0  0  0  0  0  0  0  0  0
   -6.3526    2.0164    0.0000 N   0  0  0  0  0  0  0  0  0  0  0  0
   -0.7500   -1.2990    0.0000 C   0  0  0  0  0  0  0  0  0  0  0  0
   -1.5000   -2.5981    0.0000 O   0  0  0  0  0  0  0  0  0  0  0  0
    0.7500   -1.2990    0.0000 N   0  0  0  0  0  0  0  0  0  0  0  0
  1  2  1  0
  2  3  2  0
  3  4  1  0
  4  5  2  0
  5  6  1  0
  6  7  2  0
  7  8  1  0
  8  9  2  0
  9 10  1  0
 10 11  1  0
 11 12  2  0
 12 13  1  0
 13 14  2  0
 14 15  1  0
 15 16  2  0
 16 17  1  0
 17 18  2  0
 18 19  1  0
 19 20  1  0
 20 21  2  0
 21 22  1  0
 22 23  2  0
 23 24  1  0
 24 25  2  0
 14 26  1  0
 26 27  2  0
 27 28  1  0
 28 29  2  0
 29 30  1  0
 30 31  2  0
 31 32  1  0
 31 33  1  0
 33 34  2  0
 33 35  1  0
  5 36  1  0
 36 37  2  0
 36 38  1  0
 38  2  1  0
 10  6  1  0
 27 11  1  0
 35 28  1  0
 19 15  1  0
 25 20  1  0
M  END
>  <Title>  (432) 
idAAQPgen7

$$$$

     RDKit          2D

 42 48  0  0  0  0  0  0  0  0999 V2000
  -10.1624    4.2767    0.0000 C   0  0  0  0  0  0  0  0  0  0  0  0
   -8.9488    3.3950    0.0000 C   0  0  0  0  0  0  0  0  0  0  0  0
   -7.5785    4.0051    0.0000 C   0  0  0  0  0  0  0  0  0  0  0  0
   -6.3650    3.1235    0.0000 C   0  0  0  0  0  0  0  0  0  0  0  0
   -6.5218    1.6317    0.0000 C   0  0  0  0  0  0  0  0  0  0  0  0
   -5.3083    0.7500    0.0000 C   0  0  0  0  0  0  0  0  0  0  0  0
   -5.3083   -0.7500    0.0000 N   0  0  0  0  0  0  0  0  0  0  0  0
   -3.8817   -1.2135    0.0000 N   0  0  0  0  0  0  0  0  0  0  0  0
   -3.0000    0.0000    0.0000 N   0  0  0  0  0  0  0  0  0  0  0  0
   -3.8817    1.2135    0.0000 N   0  0  0  0  0  0  0  0  0  0  0  0
   -3.4182    2.6401    0.0000 C   0  0  0  0  0  0  0  0  0  0  0  0
   -4.2998    3.8536    0.0000 C   0  0  0  0  0  0  0  0  0  0  0  0
   -3.4182    5.0672    0.0000 N   0  0  0  0  0  0  0  0  0  0  0  0
   -1.9916    4.6036    0.0000 N   0  0  0  0  0  0  0  0  0  0  0  0
   -1.9916    3.1036    0.0000 N   0  0  0  0  0  0  0  0  0  0  0  0
   -0.7780    2.2220    0.0000 C   0  0  0  0  0  0  0  0  0  0  0  0
   -0.9348    0.7302    0.0000 C   0  0  0  0  0  0  0  0  0  0  0  0
    0.2787   -0.1515    0.0000 C   0  0  0  0  0  0  0  0  0  0  0  0
    1.6490    0.4586    0.0000 C   0  0  0  0  0  0  0  0  0  0  0  0
    2.8625   -0.4231    0.0000 C   0  0  0  0  0  0  0  0  0  0  0  0
    2.7057   -1.9149    0.0000 C   0  0  0  0  0  0  0  0  0  0  0  0
    3.9193   -2.7965    0.0000 C   0  0  0  0  0  0  0  0  0  0  0  0
    5.2896   -2.1864    0.0000 C   0  0  0  0  0  0  0  0  0  0  0  0
    6.5031   -3.0681    0.0000 C   0  0  0  0  0  0  0  0  0  0  0  0
    6.3463   -4.5599    0.0000 C   0  0  0  0  0  0  0  0  0  0  0  0
    7.5598   -5.4416    0.0000 C   0  0  0  0  0  0  0  0  0  0  0  0
    8.9302   -4.8315    0.0000 C   0  0  0  0  0  0  0  0  0  0  0  0
    9.0870   -3.3397    0.0000 C   0  0  0  0  0  0  0  0  0  0  0  0
    7.8734   -2.4580    0.0000 C   0  0  0  0  0  0  0  0  0  0  0  0
    5.4464   -0.6946    0.0000 C   0  0  0  0  0  0  0  0  0  0  0  0
    4.2329    0.1870    0.0000 C   0  0  0  0  0  0  0  0  0  0  0  0
    4.3896    1.6788    0.0000 C   0  0  0  0  0  0  0  0  0  0  0  0
    5.7600    2.2889    0.0000 C   0  0  0  0  0  0  0  0  0  0  0  0
    5.9168    3.7807    0.0000 C   0  0  0  0  0  0  0  0  0  0  0  0
    4.7032    4.6624    0.0000 C   0  0  0  0  0  0  0  0  0  0  0  0
    3.3329    4.0523    0.0000 C   0  0  0  0  0  0  0  0  0  0  0  0
    3.1761    2.5605    0.0000 C   0  0  0  0  0  0  0  0  0  0  0  0
    1.8058    1.9504    0.0000 C   0  0  0  0  0  0  0  0  0  0  0  0
    0.5923    2.8321    0.0000 C   0  0  0  0  0  0  0  0  0  0  0  0
   -7.8921    1.0216    0.0000 C   0  0  0  0  0  0  0  0  0  0  0  0
   -8.0489   -0.4702    0.0000 O   0  0  0  0  0  0  0  0  0  0  0  0
   -9.1056    1.9033    0.0000 N   0  0  0  0  0  0  0  0  0  0  0  0
  1  2  1  0
  2  3  2  0
  3  4  1  0
  4  5  2  0
  5  6  1  0
  6  7  2  0
  7  8  1  0
  8  9  2  0
  9 10  1  0
 10 11  1  0
 11 12  2  0
 12 13  1  0
 13 14  2  0
 14 15  1  0
 15 16  1  0
 16 17  2  0
 17 18  1  0
 18 19  2  0
 19 20  1  0
 20 21  2  0
 21 22  1  0
 22 23  2  0
 23 24  1  0
 24 25  2  0
 25 26  1  0
 26 27  2  0
 27 28  1  0
 28 29  2  0
 23 30  1  0
 30 31  2  0
 31 32  1  0
 32 33  2  0
 33 34  1  0
 34 35  2  0
 35 36  1  0
 36 37  2  0
 19 38  1  0
 38 39  2  0
  5 40  1  0
 40 41  2  0
 40 42  1  0
 42  2  1  0
 10  6  1  0
 15 11  1  0
 39 16  1  0
 31 20  1  0
 37 32  1  0
 29 24  1  0
M  END
>  <Title>  (433) 
idAAQQgen7

$$$$

     RDKit          2D

 41 47  0  0  0  0  0  0  0  0999 V2000
   -6.9982  -12.3737    0.0000 C   0  0  0  0  0  0  0  0  0  0  0  0
   -5.6074  -11.8118    0.0000 C   0  0  0  0  0  0  0  0  0  0  0  0
   -4.4254  -12.7353    0.0000 C   0  0  0  0  0  0  0  0  0  0  0  0
   -3.0346  -12.1734    0.0000 C   0  0  0  0  0  0  0  0  0  0  0  0
   -2.8258  -10.6880    0.0000 C   0  0  0  0  0  0  0  0  0  0  0  0
   -1.4350  -10.1261    0.0000 C   0  0  0  0  0  0  0  0  0  0  0  0
   -0.1630  -10.9210    0.0000 N   0  0  0  0  0  0  0  0  0  0  0  0
    0.9861   -9.9568    0.0000 N   0  0  0  0  0  0  0  0  0  0  0  0
    0.4242   -8.5660    0.0000 N   0  0  0  0  0  0  0  0  0  0  0  0
   -1.0722   -8.6706    0.0000 N   0  0  0  0  0  0  0  0  0  0  0  0
   -2.0363   -7.5216    0.0000 C   0  0  0  0  0  0  0  0  0  0  0  0
   -1.6735   -6.0661    0.0000 C   0  0  0  0  0  0  0  0  0  0  0  0
   -2.9455   -5.2712    0.0000 C   0  0  0  0  0  0  0  0  0  0  0  0
   -4.0946   -6.2354    0.0000 C   0  0  0  0  0  0  0  0  0  0  0  0
   -5.5500   -5.8725    0.0000 C   0  0  0  0  0  0  0  0  0  0  0  0
   -6.6991   -6.8367    0.0000 N   0  0  0  0  0  0  0  0  0  0  0  0
   -7.9712   -6.0419    0.0000 N   0  0  0  0  0  0  0  0  0  0  0  0
   -7.6083   -4.5864    0.0000 N   0  0  0  0  0  0  0  0  0  0  0  0
   -6.1120   -4.4818    0.0000 N   0  0  0  0  0  0  0  0  0  0  0  0
   -5.3171   -3.2097    0.0000 C   0  0  0  0  0  0  0  0  0  0  0  0
   -3.8499   -3.5216    0.0000 C   0  0  0  0  0  0  0  0  0  0  0  0
   -2.5254   -2.8174    0.0000 C   0  0  0  0  0  0  0  0  0  0  0  0
   -1.9635   -1.4266    0.0000 C   0  0  0  0  0  0  0  0  0  0  0  0
   -0.7500   -2.3083    0.0000 C   0  0  0  0  0  0  0  0  0  0  0  0
    0.7500   -2.3083    0.0000 C   0  0  0  0  0  0  0  0  0  0  0  0
    1.9635   -1.4266    0.0000 C   0  0  0  0  0  0  0  0  0  0  0  0
    2.4271   -0.0000    0.0000 C   0  0  0  0  0  0  0  0  0  0  0  0
    1.9635    1.4266    0.0000 C   0  0  0  0  0  0  0  0  0  0  0  0
    0.7500    2.3083    0.0000 C   0  0  0  0  0  0  0  0  0  0  0  0
   -0.7500    2.3083    0.0000 C   0  0  0  0  0  0  0  0  0  0  0  0
   -1.9635    1.4266    0.0000 C   0  0  0  0  0  0  0  0  0  0  0  0
   -2.4271   -0.0000    0.0000 C   0  0  0  0  0  0  0  0  0  0  0  0
   -3.6991    0.7949    0.0000 N   0  0  0  0  0  0  0  0  0  0  0  0
   -5.1845    0.5861    0.0000 N   0  0  0  0  0  0  0  0  0  0  0  0
   -6.1882   -0.5286    0.0000 N   0  0  0  0  0  0  0  0  0  0  0  0
   -6.2406   -2.0277    0.0000 N   0  0  0  0  0  0  0  0  0  0  0  0
   -3.5327   -7.6262    0.0000 C   0  0  0  0  0  0  0  0  0  0  0  0
   -4.3276   -8.8983    0.0000 O   0  0  0  0  0  0  0  0  0  0  0  0
   -4.0078   -9.7645    0.0000 C   0  0  0  0  0  0  0  0  0  0  0  0
   -5.3986  -10.3264    0.0000 C   0  0  0  0  0  0  0  0  0  0  0  0
   -6.5806   -9.4029    0.0000 C   0  0  0  0  0  0  0  0  0  0  0  0
  1  2  1  0
  2  3  2  0
  3  4  1  0
  4  5  2  0
  5  6  1  0
  6  7  2  0
  7  8  1  0
  8  9  2  0
  9 10  1  0
 10 11  1  0
 11 12  2  0
 12 13  1  0
 13 14  2  0
 14 15  1  0
 15 16  2  0
 16 17  1  0
 17 18  2  0
 18 19  1  0
 19 20  1  0
 20 21  2  0
 21 22  1  0
 22 23  2  0
 23 24  1  0
 24 25  2  0
 25 26  1  0
 26 27  2  0
 27 28  1  0
 28 29  2  0
 29 30  1  0
 30 31  2  0
 31 32  1  0
 32 33  2  0
 33 34  1  0
 34 35  2  0
 35 36  1  0
 14 37  1  0
 37 38  2  0
  5 39  1  0
 39 40  2  0
 40 41  1  0
 40  2  1  0
 10  6  1  0
 37 11  1  0
 19 15  1  0
 36 20  1  0
 32 23  1  0
 36 26  1  0
M  END
>  <Title>  (434) 
idAAQRgen7

$$$$

     RDKit          2D

 30 34  0  0  0  0  0  0  0  0999 V2000
    3.0000    0.0000    0.0000 C   0  0  0  0  0  0  0  0  0  0  0  0
    1.5000    0.0000    0.0000 C   0  0  0  0  0  0  0  0  0  0  0  0
    0.7500   -1.2990    0.0000 C   0  0  0  0  0  0  0  0  0  0  0  0
   -0.7500   -1.2990    0.0000 C   0  0  0  0  0  0  0  0  0  0  0  0
   -1.5000    0.0000    0.0000 C   0  0  0  0  0  0  0  0  0  0  0  0
   -3.0000    0.0000    0.0000 C   0  0  0  0  0  0  0  0  0  0  0  0
   -3.8817   -1.2135    0.0000 N   0  0  0  0  0  0  0  0  0  0  0  0
   -5.3083   -0.7500    0.0000 N   0  0  0  0  0  0  0  0  0  0  0  0
   -5.3083    0.7500    0.0000 N   0  0  0  0  0  0  0  0  0  0  0  0
   -3.8817    1.2135    0.0000 N   0  0  0  0  0  0  0  0  0  0  0  0
   -3.4182    2.6401    0.0000 C   0  0  0  0  0  0  0  0  0  0  0  0
   -1.9509    2.9520    0.0000 C   0  0  0  0  0  0  0  0  0  0  0  0
   -1.4874    4.3786    0.0000 C   0  0  0  0  0  0  0  0  0  0  0  0
   -2.4911    5.4933    0.0000 C   0  0  0  0  0  0  0  0  0  0  0  0
   -2.0276    6.9199    0.0000 C   0  0  0  0  0  0  0  0  0  0  0  0
   -3.0313    8.0346    0.0000 C   0  0  0  0  0  0  0  0  0  0  0  0
   -2.5677    9.4612    0.0000 C   0  0  0  0  0  0  0  0  0  0  0  0
   -1.1005    9.7730    0.0000 C   0  0  0  0  0  0  0  0  0  0  0  0
   -0.0968    8.6583    0.0000 C   0  0  0  0  0  0  0  0  0  0  0  0
   -0.5604    7.2317    0.0000 C   0  0  0  0  0  0  0  0  0  0  0  0
    0.4433    6.1170    0.0000 N   0  0  0  0  0  0  0  0  0  0  0  0
    0.1315    4.6498    0.0000 C   0  0  0  0  0  0  0  0  0  0  0  0
    1.4305    3.8998    0.0000 C   0  0  0  0  0  0  0  0  0  0  0  0
    2.5452    4.9035    0.0000 C   0  0  0  0  0  0  0  0  0  0  0  0
    1.9351    6.2738    0.0000 C   0  0  0  0  0  0  0  0  0  0  0  0
   -3.9583    5.1814    0.0000 C   0  0  0  0  0  0  0  0  0  0  0  0
   -4.9620    6.2961    0.0000 O   0  0  0  0  0  0  0  0  0  0  0  0
   -4.4218    3.7548    0.0000 N   0  0  0  0  0  0  0  0  0  0  0  0
   -0.7500    1.2990    0.0000 C   0  0  0  0  0  0  0  0  0  0  0  0
    0.7500    1.2990    0.0000 C   0  0  0  0  0  0  0  0  0  0  0  0
  1  2  1  0
  2  3  2  0
  3  4  1  0
  4  5  2  0
  5  6  1  0
  6  7  2  0
  7  8  1  0
  8  9  2  0
  9 10  1  0
 10 11  1  0
 11 12  2  0
 12 13  1  0
 13 14  2  0
 14 15  1  0
 15 16  2  0
 16 17  1  0
 17 18  2  0
 18 19  1  0
 19 20  2  0
 20 21  1  0
 21 22  1  0
 22 23  2  0
 23 24  1  0
 24 25  2  0
 14 26  1  0
 26 27  2  0
 26 28  1  0
  5 29  1  0
 29 30  2  0
 30  2  1  0
 10  6  1  0
 28 11  1  0
 20 15  1  0
 25 21  1  0
M  END
>  <Title>  (435) 
idAAQSgen7

$$$$

     RDKit          2D

 56 64  0  0  0  0  0  0  0  0999 V2000
   12.5064   -0.1148    0.0000 C   0  0  0  0  0  0  0  0  0  0  0  0
   11.0392   -0.4266    0.0000 C   0  0  0  0  0  0  0  0  0  0  0  0
   10.5757   -1.8532    0.0000 O   0  0  0  0  0  0  0  0  0  0  0  0
   10.0355    0.6881    0.0000 O   0  0  0  0  0  0  0  0  0  0  0  0
    8.5683    0.3762    0.0000 C   0  0  0  0  0  0  0  0  0  0  0  0
    7.4536    1.3799    0.0000 C   0  0  0  0  0  0  0  0  0  0  0  0
    6.1545    0.6299    0.0000 C   0  0  0  0  0  0  0  0  0  0  0  0
    6.4664   -0.8373    0.0000 C   0  0  0  0  0  0  0  0  0  0  0  0
    5.4627   -1.9520    0.0000 C   0  0  0  0  0  0  0  0  0  0  0  0
    5.9262   -3.3786    0.0000 O   0  0  0  0  0  0  0  0  0  0  0  0
    3.9955   -1.6402    0.0000 N   0  0  0  0  0  0  0  0  0  0  0  0
    2.9918   -2.7549    0.0000 C   0  0  0  0  0  0  0  0  0  0  0  0
    3.3037   -4.2221    0.0000 N   0  0  0  0  0  0  0  0  0  0  0  0
    2.0046   -4.9721    0.0000 N   0  0  0  0  0  0  0  0  0  0  0  0
    0.8899   -3.9684    0.0000 N   0  0  0  0  0  0  0  0  0  0  0  0
    1.5000   -2.5981    0.0000 N   0  0  0  0  0  0  0  0  0  0  0  0
    0.7500   -1.2990    0.0000 C   0  0  0  0  0  0  0  0  0  0  0  0
    1.5000    0.0000    0.0000 C   0  0  0  0  0  0  0  0  0  0  0  0
    0.7500    1.2990    0.0000 C   0  0  0  0  0  0  0  0  0  0  0  0
   -0.7500    1.2990    0.0000 C   0  0  0  0  0  0  0  0  0  0  0  0
   -1.5000    2.5981    0.0000 C   0  0  0  0  0  0  0  0  0  0  0  0
   -2.9918    2.7549    0.0000 N   0  0  0  0  0  0  0  0  0  0  0  0
   -3.3037    4.2221    0.0000 N   0  0  0  0  0  0  0  0  0  0  0  0
   -2.0046    4.9721    0.0000 N   0  0  0  0  0  0  0  0  0  0  0  0
   -0.8899    3.9684    0.0000 N   0  0  0  0  0  0  0  0  0  0  0  0
    0.5773    4.2803    0.0000 C   0  0  0  0  0  0  0  0  0  0  0  0
    1.6920    3.2766    0.0000 N   0  0  0  0  0  0  0  0  0  0  0  0
    2.9911    4.0266    0.0000 N   0  0  0  0  0  0  0  0  0  0  0  0
    2.6792    5.4938    0.0000 N   0  0  0  0  0  0  0  0  0  0  0  0
    1.1874    5.6506    0.0000 N   0  0  0  0  0  0  0  0  0  0  0  0
    0.4374    6.9496    0.0000 C   0  0  0  0  0  0  0  0  0  0  0  0
   -1.0626    6.9496    0.0000 C   0  0  0  0  0  0  0  0  0  0  0  0
   -1.8126    8.2487    0.0000 C   0  0  0  0  0  0  0  0  0  0  0  0
   -1.0626    9.5477    0.0000 C   0  0  0  0  0  0  0  0  0  0  0  0
    0.4374    9.5477    0.0000 C   0  0  0  0  0  0  0  0  0  0  0  0
    1.1874    8.2487    0.0000 C   0  0  0  0  0  0  0  0  0  0  0  0
   -1.5000    0.0000    0.0000 C   0  0  0  0  0  0  0  0  0  0  0  0
   -0.7500   -1.2990    0.0000 C   0  0  0  0  0  0  0  0  0  0  0  0
   -1.5000   -2.5981    0.0000 C   0  0  0  0  0  0  0  0  0  0  0  0
   -0.8899   -3.9684    0.0000 C   0  0  0  0  0  0  0  0  0  0  0  0
   -2.0046   -4.9721    0.0000 C   0  0  0  0  0  0  0  0  0  0  0  0
   -3.3037   -4.2221    0.0000 C   0  0  0  0  0  0  0  0  0  0  0  0
   -4.6740   -4.8322    0.0000 C   0  0  0  0  0  0  0  0  0  0  0  0
   -4.9858   -6.2994    0.0000 N   0  0  0  0  0  0  0  0  0  0  0  0
   -6.4776   -6.4562    0.0000 N   0  0  0  0  0  0  0  0  0  0  0  0
   -7.0877   -5.0859    0.0000 N   0  0  0  0  0  0  0  0  0  0  0  0
   -5.9730   -4.0822    0.0000 N   0  0  0  0  0  0  0  0  0  0  0  0
   -6.1298   -2.5904    0.0000 C   0  0  0  0  0  0  0  0  0  0  0  0
   -4.9163   -1.7087    0.0000 C   0  0  0  0  0  0  0  0  0  0  0  0
   -5.0731   -0.2170    0.0000 C   0  0  0  0  0  0  0  0  0  0  0  0
   -6.4434    0.3932    0.0000 C   0  0  0  0  0  0  0  0  0  0  0  0
   -7.6569   -0.4885    0.0000 C   0  0  0  0  0  0  0  0  0  0  0  0
   -7.5001   -1.9803    0.0000 C   0  0  0  0  0  0  0  0  0  0  0  0
   -2.9918   -2.7549    0.0000 C   0  0  0  0  0  0  0  0  0  0  0  0
   -3.9955   -1.6402    0.0000 O   0  0  0  0  0  0  0  0  0  0  0  0
    7.9582   -0.9941    0.0000 N   0  0  0  0  0  0  0  0  0  0  0  0
  1  2  1  0
  2  3  2  0
  2  4  1  0
  4  5  1  0
  5  6  2  0
  6  7  1  0
  7  8  2  0
  8  9  1  0
  9 10  2  0
  9 11  1  0
 11 12  1  0
 12 13  2  0
 13 14  1  0
 14 15  2  0
 15 16  1  0
 16 17  1  0
 17 18  2  0
 18 19  1  0
 19 20  2  0
 20 21  1  0
 21 22  2  0
 22 23  1  0
 23 24  2  0
 24 25  1  0
 25 26  1  0
 26 27  2  0
 27 28  1  0
 28 29  2  0
 29 30  1  0
 30 31  1  0
 31 32  2  0
 32 33  1  0
 33 34  2  0
 34 35  1  0
 35 36  2  0
 20 37  1  0
 37 38  2  0
 38 39  1  0
 39 40  2  0
 40 41  1  0
 41 42  2  0
 42 43  1  0
 43 44  2  0
 44 45  1  0
 45 46  2  0
 46 47  1  0
 47 48  1  0
 48 49  2  0
 49 50  1  0
 50 51  2  0
 51 52  1  0
 52 53  2  0
 42 54  1  0
 54 55  2  0
  8 56  1  0
 56  5  1  0
 16 12  1  0
 38 17  1  0
 54 39  1  0
 25 21  1  0
 30 26  1  0
 36 31  1  0
 47 43  1  0
 53 48  1  0
M  END
>  <Title>  (436) 
idAAQTgen7

$$$$

     RDKit          2D

 12 12  0  0  0  0  0  0  0  0999 V2000
    4.6771   -1.2990    0.0000 O   0  0  0  0  0  0  0  0  0  0  0  0
    3.9271    0.0000    0.0000 C   0  0  0  0  0  0  0  0  0  0  0  0
    2.4271    0.0000    0.0000 C   0  0  0  0  0  0  0  0  0  0  0  0
    1.9635   -1.4266    0.0000 C   0  0  0  0  0  0  0  0  0  0  0  0
    0.7500   -2.3083    0.0000 C   0  0  0  0  0  0  0  0  0  0  0  0
   -0.7500   -2.3083    0.0000 C   0  0  0  0  0  0  0  0  0  0  0  0
   -1.9635   -1.4266    0.0000 C   0  0  0  0  0  0  0  0  0  0  0  0
   -2.4271    0.0000    0.0000 C   0  0  0  0  0  0  0  0  0  0  0  0
   -1.9635    1.4266    0.0000 C   0  0  0  0  0  0  0  0  0  0  0  0
   -0.7500    2.3083    0.0000 C   0  0  0  0  0  0  0  0  0  0  0  0
    0.7500    2.3083    0.0000 C   0  0  0  0  0  0  0  0  0  0  0  0
    1.9635    1.4266    0.0000 C   0  0  0  0  0  0  0  0  0  0  0  0
  1  2  1  0
  2  3  1  0
  3  4  1  0
  4  5  1  0
  5  6  1  0
  6  7  1  0
  7  8  1  0
  8  9  1  0
  9 10  1  0
 10 11  1  0
 11 12  1  0
 12  3  1  0
M  END
>  <Title>  (437) 
idAAQUgen7

$$$$

     RDKit          2D

 28 32  0  0  0  0  0  0  0  0999 V2000
    2.3133    0.4372    0.0000 O   0  0  0  0  0  0  0  0  0  0  0  0
    3.6836   -0.1729    0.0000 C   0  0  0  0  0  0  0  0  0  0  0  0
    3.9955   -1.6402    0.0000 C   0  0  0  0  0  0  0  0  0  0  0  0
    2.9918   -2.7549    0.0000 C   0  0  0  0  0  0  0  0  0  0  0  0
    3.3037   -4.2221    0.0000 N   0  0  0  0  0  0  0  0  0  0  0  0
    2.0046   -4.9721    0.0000 C   0  0  0  0  0  0  0  0  0  0  0  0
    0.8899   -3.9684    0.0000 N   0  0  0  0  0  0  0  0  0  0  0  0
    1.5000   -2.5981    0.0000 N   0  0  0  0  0  0  0  0  0  0  0  0
    0.7500   -1.2990    0.0000 C   0  0  0  0  0  0  0  0  0  0  0  0
    1.5000    0.0000    0.0000 C   0  0  0  0  0  0  0  0  0  0  0  0
    0.7500    1.2990    0.0000 C   0  0  0  0  0  0  0  0  0  0  0  0
   -0.7500    1.2990    0.0000 C   0  0  0  0  0  0  0  0  0  0  0  0
   -1.5000    0.0000    0.0000 C   0  0  0  0  0  0  0  0  0  0  0  0
   -0.7500   -1.2990    0.0000 C   0  0  0  0  0  0  0  0  0  0  0  0
    5.4873   -1.7969    0.0000 C   0  0  0  0  0  0  0  0  0  0  0  0
    6.0974   -0.4266    0.0000 C   0  0  0  0  0  0  0  0  0  0  0  0
    4.9826    0.5771    0.0000 C   0  0  0  0  0  0  0  0  0  0  0  0
    5.1394    2.0689    0.0000 N   0  0  0  0  0  0  0  0  0  0  0  0
    4.0247    3.0725    0.0000 N   0  0  0  0  0  0  0  0  0  0  0  0
    4.6348    4.4429    0.0000 N   0  0  0  0  0  0  0  0  0  0  0  0
    6.1266    4.2861    0.0000 N   0  0  0  0  0  0  0  0  0  0  0  0
    6.4385    2.8189    0.0000 C   0  0  0  0  0  0  0  0  0  0  0  0
    7.8088    2.2087    0.0000 C   0  0  0  0  0  0  0  0  0  0  0  0
    9.1078    2.9587    0.0000 C   0  0  0  0  0  0  0  0  0  0  0  0
   10.2226    1.9551    0.0000 C   0  0  0  0  0  0  0  0  0  0  0  0
    9.6124    0.5847    0.0000 C   0  0  0  0  0  0  0  0  0  0  0  0
   10.3624   -0.7143    0.0000 O   0  0  0  0  0  0  0  0  0  0  0  0
    8.1207    0.7415    0.0000 C   0  0  0  0  0  0  0  0  0  0  0  0
  1  2  2  0
  2  3  1  0
  3  4  1  0
  4  5  2  0
  5  6  1  0
  6  7  2  0
  7  8  1  0
  8  9  1  0
  9 10  2  0
 10 11  1  0
 11 12  2  0
 12 13  1  0
 13 14  2  0
  3 15  2  0
 15 16  1  0
 16 17  2  0
 17 18  1  0
 18 19  1  0
 19 20  2  0
 20 21  1  0
 21 22  2  0
 22 23  1  0
 23 24  2  0
 24 25  1  0
 25 26  2  0
 26 27  1  0
 26 28  1  0
 17  2  1  0
 22 18  1  0
 28 23  1  0
  8  4  1  0
 14  9  1  0
M  END
>  <Title>  (438) 
idAAQVgen7

$$$$

     RDKit          2D

 45 51  0  0  0  0  0  0  0  0999 V2000
    3.0000    0.0000    0.0000 C   0  0  0  0  0  0  0  0  0  0  0  0
    1.5000    0.0000    0.0000 C   0  0  0  0  0  0  0  0  0  0  0  0
    0.7500    1.2990    0.0000 C   0  0  0  0  0  0  0  0  0  0  0  0
   -0.7500    1.2990    0.0000 C   0  0  0  0  0  0  0  0  0  0  0  0
   -1.5000    0.0000    0.0000 C   0  0  0  0  0  0  0  0  0  0  0  0
   -3.0000    0.0000    0.0000 C   0  0  0  0  0  0  0  0  0  0  0  0
   -3.8817   -1.2135    0.0000 C   0  0  0  0  0  0  0  0  0  0  0  0
   -5.3083   -0.7500    0.0000 N   0  0  0  0  0  0  0  0  0  0  0  0
   -5.3083    0.7500    0.0000 N   0  0  0  0  0  0  0  0  0  0  0  0
   -3.8817    1.2135    0.0000 N   0  0  0  0  0  0  0  0  0  0  0  0
   -3.4182    2.6401    0.0000 C   0  0  0  0  0  0  0  0  0  0  0  0
   -1.9509    2.9520    0.0000 C   0  0  0  0  0  0  0  0  0  0  0  0
   -1.4874    4.3786    0.0000 C   0  0  0  0  0  0  0  0  0  0  0  0
   -2.4911    5.4933    0.0000 C   0  0  0  0  0  0  0  0  0  0  0  0
   -2.0276    6.9199    0.0000 C   0  0  0  0  0  0  0  0  0  0  0  0
   -2.9093    8.1334    0.0000 N   0  0  0  0  0  0  0  0  0  0  0  0
   -2.0276    9.3469    0.0000 N   0  0  0  0  0  0  0  0  0  0  0  0
   -0.6010    8.8834    0.0000 N   0  0  0  0  0  0  0  0  0  0  0  0
   -0.6010    7.3834    0.0000 N   0  0  0  0  0  0  0  0  0  0  0  0
    0.6125    6.5017    0.0000 C   0  0  0  0  0  0  0  0  0  0  0  0
    0.4557    5.0099    0.0000 C   0  0  0  0  0  0  0  0  0  0  0  0
    1.6693    4.1283    0.0000 C   0  0  0  0  0  0  0  0  0  0  0  0
    3.0396    4.7384    0.0000 C   0  0  0  0  0  0  0  0  0  0  0  0
    4.2531    3.8567    0.0000 C   0  0  0  0  0  0  0  0  0  0  0  0
    4.0963    2.3649    0.0000 C   0  0  0  0  0  0  0  0  0  0  0  0
    5.3098    1.4832    0.0000 C   0  0  0  0  0  0  0  0  0  0  0  0
    6.6802    2.0933    0.0000 C   0  0  0  0  0  0  0  0  0  0  0  0
    6.8370    3.5851    0.0000 C   0  0  0  0  0  0  0  0  0  0  0  0
    5.6234    4.4668    0.0000 C   0  0  0  0  0  0  0  0  0  0  0  0
    3.1964    6.2301    0.0000 C   0  0  0  0  0  0  0  0  0  0  0  0
    1.9829    7.1118    0.0000 C   0  0  0  0  0  0  0  0  0  0  0  0
    2.1396    8.6036    0.0000 C   0  0  0  0  0  0  0  0  0  0  0  0
    0.9261    9.4853    0.0000 O   0  0  0  0  0  0  0  0  0  0  0  0
    3.5100    9.2137    0.0000 N   0  0  0  0  0  0  0  0  0  0  0  0
    3.6668   10.7055    0.0000 C   0  0  0  0  0  0  0  0  0  0  0  0
    5.0371   11.3156    0.0000 C   0  0  0  0  0  0  0  0  0  0  0  0
    5.1939   12.8074    0.0000 C   0  0  0  0  0  0  0  0  0  0  0  0
    3.9803   13.6891    0.0000 C   0  0  0  0  0  0  0  0  0  0  0  0
    2.6100   13.0789    0.0000 C   0  0  0  0  0  0  0  0  0  0  0  0
    2.4532   11.5872    0.0000 C   0  0  0  0  0  0  0  0  0  0  0  0
   -3.9583    5.1814    0.0000 C   0  0  0  0  0  0  0  0  0  0  0  0
   -4.4218    3.7548    0.0000 C   0  0  0  0  0  0  0  0  0  0  0  0
   -0.7500   -1.2990    0.0000 C   0  0  0  0  0  0  0  0  0  0  0  0
   -1.5000   -2.5981    0.0000 O   0  0  0  0  0  0  0  0  0  0  0  0
    0.7500   -1.2990    0.0000 N   0  0  0  0  0  0  0  0  0  0  0  0
  1  2  1  0
  2  3  2  0
  3  4  1  0
  4  5  2  0
  5  6  1  0
  6  7  2  0
  7  8  1  0
  8  9  2  0
  9 10  1  0
 10 11  1  0
 11 12  2  0
 12 13  1  0
 13 14  2  0
 14 15  1  0
 15 16  2  0
 16 17  1  0
 17 18  2  0
 18 19  1  0
 19 20  1  0
 20 21  2  0
 21 22  1  0
 22 23  2  0
 23 24  1  0
 24 25  2  0
 25 26  1  0
 26 27  2  0
 27 28  1  0
 28 29  2  0
 23 30  1  0
 30 31  2  0
 31 32  1  0
 32 33  2  0
 32 34  1  0
 34 35  1  0
 35 36  2  0
 36 37  1  0
 37 38  2  0
 38 39  1  0
 39 40  2  0
 14 41  1  0
 41 42  2  0
  5 43  1  0
 43 44  2  0
 43 45  1  0
 45  2  1  0
 10  6  1  0
 42 11  1  0
 19 15  1  0
 31 20  1  0
 40 35  1  0
 29 24  1  0
M  END
>  <Title>  (439) 
idAAQWgen7

$$$$

     RDKit          2D

 14 14  0  0  0  0  0  0  0  0999 V2000
    5.1478   -1.2990    0.0000 O   0  0  0  0  0  0  0  0  0  0  0  0
    4.3978    0.0000    0.0000 C   0  0  0  0  0  0  0  0  0  0  0  0
    2.8978    0.0000    0.0000 C   0  0  0  0  0  0  0  0  0  0  0  0
    2.5095   -1.4489    0.0000 C   0  0  0  0  0  0  0  0  0  0  0  0
    1.4489   -2.5095    0.0000 C   0  0  0  0  0  0  0  0  0  0  0  0
   -0.0000   -2.8978    0.0000 C   0  0  0  0  0  0  0  0  0  0  0  0
   -1.4489   -2.5095    0.0000 C   0  0  0  0  0  0  0  0  0  0  0  0
   -2.5095   -1.4489    0.0000 C   0  0  0  0  0  0  0  0  0  0  0  0
   -2.8978    0.0000    0.0000 C   0  0  0  0  0  0  0  0  0  0  0  0
   -2.5095    1.4489    0.0000 C   0  0  0  0  0  0  0  0  0  0  0  0
   -1.4489    2.5095    0.0000 C   0  0  0  0  0  0  0  0  0  0  0  0
    0.0000    2.8978    0.0000 C   0  0  0  0  0  0  0  0  0  0  0  0
    1.4489    2.5095    0.0000 C   0  0  0  0  0  0  0  0  0  0  0  0
    2.5095    1.4489    0.0000 C   0  0  0  0  0  0  0  0  0  0  0  0
  1  2  1  0
  2  3  1  0
  3  4  2  0
  4  5  1  0
  5  6  2  0
  6  7  1  0
  7  8  2  0
  8  9  1  0
  9 10  2  0
 10 11  1  0
 11 12  2  0
 12 13  1  0
 13 14  2  0
 14  3  1  0
M  END
>  <Title>  (440) 
idAAQXgen7

$$$$

     RDKit          2D

 33 37  0  0  0  0  0  0  0  0999 V2000
    3.0000    0.0000    0.0000 C   0  0  0  0  0  0  0  0  0  0  0  0
    1.5000    0.0000    0.0000 C   0  0  0  0  0  0  0  0  0  0  0  0
    0.7500   -1.2990    0.0000 C   0  0  0  0  0  0  0  0  0  0  0  0
   -0.7500   -1.2990    0.0000 C   0  0  0  0  0  0  0  0  0  0  0  0
   -1.5000    0.0000    0.0000 C   0  0  0  0  0  0  0  0  0  0  0  0
   -3.0000    0.0000    0.0000 C   0  0  0  0  0  0  0  0  0  0  0  0
   -3.8817   -1.2135    0.0000 N   0  0  0  0  0  0  0  0  0  0  0  0
   -5.3083   -0.7500    0.0000 N   0  0  0  0  0  0  0  0  0  0  0  0
   -5.3083    0.7500    0.0000 N   0  0  0  0  0  0  0  0  0  0  0  0
   -3.8817    1.2135    0.0000 N   0  0  0  0  0  0  0  0  0  0  0  0
   -3.4182    2.6401    0.0000 C   0  0  0  0  0  0  0  0  0  0  0  0
   -1.9509    2.9520    0.0000 C   0  0  0  0  0  0  0  0  0  0  0  0
   -1.4874    4.3786    0.0000 C   0  0  0  0  0  0  0  0  0  0  0  0
   -2.4911    5.4933    0.0000 C   0  0  0  0  0  0  0  0  0  0  0  0
   -2.0276    6.9199    0.0000 C   0  0  0  0  0  0  0  0  0  0  0  0
   -3.0313    8.0346    0.0000 O   0  0  0  0  0  0  0  0  0  0  0  0
   -0.5604    7.2317    0.0000 N   0  0  0  0  0  0  0  0  0  0  0  0
   -0.0968    8.6583    0.0000 C   0  0  0  0  0  0  0  0  0  0  0  0
   -0.9785    9.8718    0.0000 N   0  0  0  0  0  0  0  0  0  0  0  0
   -0.0968   11.0854    0.0000 N   0  0  0  0  0  0  0  0  0  0  0  0
    1.3298   10.6218    0.0000 N   0  0  0  0  0  0  0  0  0  0  0  0
    1.3298    9.1218    0.0000 N   0  0  0  0  0  0  0  0  0  0  0  0
    2.5433    8.2402    0.0000 C   0  0  0  0  0  0  0  0  0  0  0  0
    2.3865    6.7484    0.0000 C   0  0  0  0  0  0  0  0  0  0  0  0
    3.6000    5.8667    0.0000 C   0  0  0  0  0  0  0  0  0  0  0  0
    4.9703    6.4768    0.0000 C   0  0  0  0  0  0  0  0  0  0  0  0
    5.1271    7.9686    0.0000 C   0  0  0  0  0  0  0  0  0  0  0  0
    3.9136    8.8503    0.0000 C   0  0  0  0  0  0  0  0  0  0  0  0
   -3.9583    5.1814    0.0000 C   0  0  0  0  0  0  0  0  0  0  0  0
   -4.9620    6.2961    0.0000 O   0  0  0  0  0  0  0  0  0  0  0  0
   -4.4218    3.7548    0.0000 N   0  0  0  0  0  0  0  0  0  0  0  0
   -0.7500    1.2990    0.0000 N   0  0  0  0  0  0  0  0  0  0  0  0
    0.7500    1.2990    0.0000 C   0  0  0  0  0  0  0  0  0  0  0  0
  1  2  1  0
  2  3  2  0
  3  4  1  0
  4  5  2  0
  5  6  1  0
  6  7  2  0
  7  8  1  0
  8  9  2  0
  9 10  1  0
 10 11  1  0
 11 12  2  0
 12 13  1  0
 13 14  2  0
 14 15  1  0
 15 16  2  0
 15 17  1  0
 17 18  1  0
 18 19  2  0
 19 20  1  0
 20 21  2  0
 21 22  1  0
 22 23  1  0
 23 24  2  0
 24 25  1  0
 25 26  2  0
 26 27  1  0
 27 28  2  0
 14 29  1  0
 29 30  2  0
 29 31  1  0
  5 32  1  0
 32 33  1  0
 33  2  1  0
 10  6  1  0
 31 11  1  0
 22 18  1  0
 28 23  1  0
M  END
>  <Title>  (441) 
idAAQYgen7

$$$$

     RDKit          2D

 51 58  0  0  0  0  0  0  0  0999 V2000
    3.0000    2.5981    0.0000 C   0  0  0  0  0  0  0  0  0  0  0  0
    1.5000    2.5981    0.0000 C   0  0  0  0  0  0  0  0  0  0  0  0
    0.7500    1.2990    0.0000 C   0  0  0  0  0  0  0  0  0  0  0  0
   -0.7500    1.2990    0.0000 C   0  0  0  0  0  0  0  0  0  0  0  0
   -1.5000    2.5981    0.0000 C   0  0  0  0  0  0  0  0  0  0  0  0
   -3.0000    2.5981    0.0000 C   0  0  0  0  0  0  0  0  0  0  0  0
   -3.7500    3.8971    0.0000 C   0  0  0  0  0  0  0  0  0  0  0  0
   -5.2500    3.8971    0.0000 C   0  0  0  0  0  0  0  0  0  0  0  0
   -6.0000    2.5981    0.0000 C   0  0  0  0  0  0  0  0  0  0  0  0
   -7.5000    2.5981    0.0000 C   0  0  0  0  0  0  0  0  0  0  0  0
   -8.2500    3.8971    0.0000 O   0  0  0  0  0  0  0  0  0  0  0  0
   -8.2500    1.2990    0.0000 N   0  0  0  0  0  0  0  0  0  0  0  0
   -9.7500    1.2990    0.0000 C   0  0  0  0  0  0  0  0  0  0  0  0
  -10.5000    2.5981    0.0000 C   0  0  0  0  0  0  0  0  0  0  0  0
  -12.0000    2.5981    0.0000 C   0  0  0  0  0  0  0  0  0  0  0  0
  -12.7500    1.2990    0.0000 C   0  0  0  0  0  0  0  0  0  0  0  0
  -14.2500    1.2990    0.0000 C   0  0  0  0  0  0  0  0  0  0  0  0
  -15.0000    2.5981    0.0000 C   0  0  0  0  0  0  0  0  0  0  0  0
  -16.5000    2.5981    0.0000 C   0  0  0  0  0  0  0  0  0  0  0  0
  -17.2500    1.2990    0.0000 C   0  0  0  0  0  0  0  0  0  0  0  0
  -16.5000    0.0000    0.0000 C   0  0  0  0  0  0  0  0  0  0  0  0
  -15.0000    0.0000    0.0000 C   0  0  0  0  0  0  0  0  0  0  0  0
  -12.0000    0.0000    0.0000 C   0  0  0  0  0  0  0  0  0  0  0  0
  -10.5000    0.0000    0.0000 C   0  0  0  0  0  0  0  0  0  0  0  0
   -9.7500   -1.2990    0.0000 C   0  0  0  0  0  0  0  0  0  0  0  0
  -10.3601   -2.6694    0.0000 N   0  0  0  0  0  0  0  0  0  0  0  0
   -9.2454   -3.6731    0.0000 N   0  0  0  0  0  0  0  0  0  0  0  0
   -7.9463   -2.9231    0.0000 N   0  0  0  0  0  0  0  0  0  0  0  0
   -8.2582   -1.4558    0.0000 N   0  0  0  0  0  0  0  0  0  0  0  0
   -7.2545   -0.3411    0.0000 C   0  0  0  0  0  0  0  0  0  0  0  0
   -7.5664    1.1261    0.0000 N   0  0  0  0  0  0  0  0  0  0  0  0
   -6.2674    1.8761    0.0000 N   0  0  0  0  0  0  0  0  0  0  0  0
   -5.1526    0.8724    0.0000 N   0  0  0  0  0  0  0  0  0  0  0  0
   -5.7627   -0.4979    0.0000 N   0  0  0  0  0  0  0  0  0  0  0  0
   -5.0127   -1.7969    0.0000 C   0  0  0  0  0  0  0  0  0  0  0  0
   -5.7627   -3.0960    0.0000 C   0  0  0  0  0  0  0  0  0  0  0  0
   -5.0127   -4.3950    0.0000 C   0  0  0  0  0  0  0  0  0  0  0  0
   -3.5127   -4.3950    0.0000 C   0  0  0  0  0  0  0  0  0  0  0  0
   -2.7627   -3.0960    0.0000 C   0  0  0  0  0  0  0  0  0  0  0  0
   -3.5127   -1.7969    0.0000 C   0  0  0  0  0  0  0  0  0  0  0  0
   -2.7627   -0.4979    0.0000 C   0  0  0  0  0  0  0  0  0  0  0  0
   -1.2627   -0.4979    0.0000 C   0  0  0  0  0  0  0  0  0  0  0  0
   -0.5127    0.8011    0.0000 C   0  0  0  0  0  0  0  0  0  0  0  0
   -1.2627    2.1002    0.0000 C   0  0  0  0  0  0  0  0  0  0  0  0
   -2.7627    2.1002    0.0000 C   0  0  0  0  0  0  0  0  0  0  0  0
   -3.5127    0.8011    0.0000 C   0  0  0  0  0  0  0  0  0  0  0  0
   -5.2500    1.2990    0.0000 C   0  0  0  0  0  0  0  0  0  0  0  0
   -3.7500    1.2990    0.0000 C   0  0  0  0  0  0  0  0  0  0  0  0
   -0.7500    3.8971    0.0000 C   0  0  0  0  0  0  0  0  0  0  0  0
   -1.5000    5.1962    0.0000 O   0  0  0  0  0  0  0  0  0  0  0  0
    0.7500    3.8971    0.0000 N   0  0  0  0  0  0  0  0  0  0  0  0
  1  2  1  0
  2  3  2  0
  3  4  1  0
  4  5  2  0
  5  6  1  0
  6  7  2  0
  7  8  1  0
  8  9  2  0
  9 10  1  0
 10 11  2  0
 10 12  1  0
 12 13  1  0
 13 14  2  0
 14 15  1  0
 15 16  2  0
 16 17  1  0
 17 18  2  0
 18 19  1  0
 19 20  2  0
 20 21  1  0
 21 22  2  0
 16 23  1  0
 23 24  2  0
 24 25  1  0
 25 26  2  0
 26 27  1  0
 27 28  2  0
 28 29  1  0
 29 30  1  0
 30 31  2  0
 31 32  1  0
 32 33  2  0
 33 34  1  0
 34 35  1  0
 35 36  2  0
 36 37  1  0
 37 38  2  0
 38 39  1  0
 39 40  2  0
 40 41  1  0
 41 42  2  0
 42 43  1  0
 43 44  2  0
 44 45  1  0
 45 46  2  0
  9 47  1  0
 47 48  2  0
  5 49  1  0
 49 50  2  0
 49 51  1  0
 51  2  1  0
 48  6  1  0
 24 13  1  0
 29 25  1  0
 34 30  1  0
 40 35  1  0
 46 41  1  0
 22 17  1  0
M  END
>  <Title>  (442) 
idAAQZgen7

$$$$

     RDKit          2D

 31 31  0  0  0  0  0  0  0  0999 V2000
    8.1986    0.0000    0.0000 C   0  0  0  0  0  0  0  0  0  0  0  0
    6.6986    0.0000    0.0000 C   0  0  0  0  0  0  0  0  0  0  0  0
    6.5306   -1.4906    0.0000 C   0  0  0  0  0  0  0  0  0  0  0  0
    6.0352   -2.9064    0.0000 C   0  0  0  0  0  0  0  0  0  0  0  0
    5.2371   -4.1765    0.0000 C   0  0  0  0  0  0  0  0  0  0  0  0
    4.1765   -5.2371    0.0000 C   0  0  0  0  0  0  0  0  0  0  0  0
    2.9064   -6.0352    0.0000 C   0  0  0  0  0  0  0  0  0  0  0  0
    1.4906   -6.5306    0.0000 C   0  0  0  0  0  0  0  0  0  0  0  0
   -0.0000   -6.6986    0.0000 C   0  0  0  0  0  0  0  0  0  0  0  0
   -1.4906   -6.5306    0.0000 C   0  0  0  0  0  0  0  0  0  0  0  0
   -2.9064   -6.0352    0.0000 C   0  0  0  0  0  0  0  0  0  0  0  0
   -4.1765   -5.2371    0.0000 C   0  0  0  0  0  0  0  0  0  0  0  0
   -5.2371   -4.1765    0.0000 C   0  0  0  0  0  0  0  0  0  0  0  0
   -6.0352   -2.9064    0.0000 C   0  0  0  0  0  0  0  0  0  0  0  0
   -6.5306   -1.4906    0.0000 C   0  0  0  0  0  0  0  0  0  0  0  0
   -6.6986    0.0000    0.0000 C   0  0  0  0  0  0  0  0  0  0  0  0
   -6.5306    1.4906    0.0000 C   0  0  0  0  0  0  0  0  0  0  0  0
   -6.0352    2.9064    0.0000 C   0  0  0  0  0  0  0  0  0  0  0  0
   -5.2371    4.1765    0.0000 C   0  0  0  0  0  0  0  0  0  0  0  0
   -4.1765    5.2371    0.0000 C   0  0  0  0  0  0  0  0  0  0  0  0
   -2.9064    6.0352    0.0000 C   0  0  0  0  0  0  0  0  0  0  0  0
   -1.4906    6.5306    0.0000 C   0  0  0  0  0  0  0  0  0  0  0  0
    0.0000    6.6986    0.0000 C   0  0  0  0  0  0  0  0  0  0  0  0
    1.4906    6.5306    0.0000 C   0  0  0  0  0  0  0  0  0  0  0  0
    2.9064    6.0352    0.0000 C   0  0  0  0  0  0  0  0  0  0  0  0
    4.1765    5.2371    0.0000 C   0  0  0  0  0  0  0  0  0  0  0  0
    5.2371    4.1765    0.0000 C   0  0  0  0  0  0  0  0  0  0  0  0
    6.4099    5.1117    0.0000 C   0  0  0  0  0  0  0  0  0  0  0  0
    6.0352    2.9064    0.0000 C   0  0  0  0  0  0  0  0  0  0  0  0
    7.3866    3.5572    0.0000 O   0  0  0  0  0  0  0  0  0  0  0  0
    6.5306    1.4906    0.0000 N   0  0  0  0  0  0  0  0  0  0  0  0
  1  2  1  0
  2  3  2  0
  3  4  1  0
  4  5  2  0
  5  6  1  0
  6  7  2  0
  7  8  1  0
  8  9  2  0
  9 10  1  0
 10 11  2  0
 11 12  1  0
 12 13  2  0
 13 14  1  0
 14 15  2  0
 15 16  1  0
 16 17  2  0
 17 18  1  0
 18 19  2  0
 19 20  1  0
 20 21  2  0
 21 22  1  0
 22 23  2  0
 23 24  1  0
 24 25  2  0
 25 26  1  0
 26 27  2  0
 27 28  1  0
 27 29  1  0
 29 30  2  0
 29 31  1  0
 31  2  1  0
M  END
>  <Title>  (443) 
idAARAgen7

$$$$

     RDKit          2D

 47 53  0  0  0  0  0  0  0  0999 V2000
   -3.2760   11.5626    0.0000 C   0  0  0  0  0  0  0  0  0  0  0  0
   -3.7395   10.1360    0.0000 C   0  0  0  0  0  0  0  0  0  0  0  0
   -2.7358    9.0213    0.0000 C   0  0  0  0  0  0  0  0  0  0  0  0
   -3.1993    7.5947    0.0000 C   0  0  0  0  0  0  0  0  0  0  0  0
   -4.6665    7.2829    0.0000 C   0  0  0  0  0  0  0  0  0  0  0  0
   -5.1301    5.8563    0.0000 C   0  0  0  0  0  0  0  0  0  0  0  0
   -6.5973    5.5444    0.0000 O   0  0  0  0  0  0  0  0  0  0  0  0
   -4.1264    4.7416    0.0000 N   0  0  0  0  0  0  0  0  0  0  0  0
   -4.5899    3.3150    0.0000 C   0  0  0  0  0  0  0  0  0  0  0  0
   -6.0165    2.8515    0.0000 N   0  0  0  0  0  0  0  0  0  0  0  0
   -6.0165    1.3515    0.0000 N   0  0  0  0  0  0  0  0  0  0  0  0
   -4.5899    0.8879    0.0000 N   0  0  0  0  0  0  0  0  0  0  0  0
   -3.7082    2.1015    0.0000 N   0  0  0  0  0  0  0  0  0  0  0  0
   -2.2082    2.1015    0.0000 C   0  0  0  0  0  0  0  0  0  0  0  0
   -1.5574    3.4529    0.0000 C   0  0  0  0  0  0  0  0  0  0  0  0
   -0.0950    3.7867    0.0000 C   0  0  0  0  0  0  0  0  0  0  0  0
    1.0777    2.8515    0.0000 C   0  0  0  0  0  0  0  0  0  0  0  0
    2.4292    3.5023    0.0000 C   0  0  0  0  0  0  0  0  0  0  0  0
    2.6970    4.9782    0.0000 N   0  0  0  0  0  0  0  0  0  0  0  0
    4.1835    5.1795    0.0000 C   0  0  0  0  0  0  0  0  0  0  0  0
    4.8343    3.8281    0.0000 N   0  0  0  0  0  0  0  0  0  0  0  0
    3.7501    2.7915    0.0000 N   0  0  0  0  0  0  0  0  0  0  0  0
    3.9514    1.3051    0.0000 C   0  0  0  0  0  0  0  0  0  0  0  0
    2.7648    0.3875    0.0000 O   0  0  0  0  0  0  0  0  0  0  0  0
    5.3394    0.7362    0.0000 C   0  0  0  0  0  0  0  0  0  0  0  0
    5.5408   -0.7502    0.0000 C   0  0  0  0  0  0  0  0  0  0  0  0
    6.9287   -1.3190    0.0000 C   0  0  0  0  0  0  0  0  0  0  0  0
    8.1153   -0.4015    0.0000 C   0  0  0  0  0  0  0  0  0  0  0  0
    7.9140    1.0850    0.0000 C   0  0  0  0  0  0  0  0  0  0  0  0
    6.5260    1.6538    0.0000 C   0  0  0  0  0  0  0  0  0  0  0  0
    6.3247    3.1402    0.0000 O   0  0  0  0  0  0  0  0  0  0  0  0
    1.0777    1.3515    0.0000 C   0  0  0  0  0  0  0  0  0  0  0  0
    1.7286    0.0000    0.0000 C   0  0  0  0  0  0  0  0  0  0  0  0
    1.0777   -1.3515    0.0000 C   0  0  0  0  0  0  0  0  0  0  0  0
   -0.3846   -1.6852    0.0000 C   0  0  0  0  0  0  0  0  0  0  0  0
   -0.7184   -3.1476    0.0000 C   0  0  0  0  0  0  0  0  0  0  0  0
    0.3812   -4.1679    0.0000 C   0  0  0  0  0  0  0  0  0  0  0  0
    0.0474   -5.6303    0.0000 C   0  0  0  0  0  0  0  0  0  0  0  0
   -1.3860   -6.0724    0.0000 C   0  0  0  0  0  0  0  0  0  0  0  0
   -2.4856   -5.0522    0.0000 C   0  0  0  0  0  0  0  0  0  0  0  0
   -2.1518   -3.5898    0.0000 C   0  0  0  0  0  0  0  0  0  0  0  0
   -1.5574   -0.7500    0.0000 C   0  0  0  0  0  0  0  0  0  0  0  0
   -1.5574    0.7500    0.0000 C   0  0  0  0  0  0  0  0  0  0  0  0
   -0.3846    1.6852    0.0000 C   0  0  0  0  0  0  0  0  0  0  0  0
   -0.7184    3.1476    0.0000 O   0  0  0  0  0  0  0  0  0  0  0  0
   -5.6702    8.3976    0.0000 C   0  0  0  0  0  0  0  0  0  0  0  0
   -5.2067    9.8242    0.0000 C   0  0  0  0  0  0  0  0  0  0  0  0
  1  2  1  0
  2  3  2  0
  3  4  1  0
  4  5  2  0
  5  6  1  0
  6  7  2  0
  6  8  1  0
  8  9  1  0
  9 10  2  0
 10 11  1  0
 11 12  2  0
 12 13  1  0
 13 14  1  0
 14 15  2  0
 15 16  1  0
 16 17  2  0
 17 18  1  0
 18 19  2  0
 19 20  1  0
 20 21  2  0
 21 22  1  0
 22 23  1  0
 23 24  2  0
 23 25  1  0
 25 26  2  0
 26 27  1  0
 27 28  2  0
 28 29  1  0
 29 30  2  0
 30 31  1  0
 17 32  1  0
 32 33  2  0
 33 34  1  0
 34 35  2  0
 35 36  1  0
 36 37  2  0
 37 38  1  0
 38 39  2  0
 39 40  1  0
 40 41  2  0
 35 42  1  0
 42 43  2  0
 43 44  1  0
 44 45  2  0
  5 46  1  0
 46 47  2  0
 47  2  1  0
 13  9  1  0
 43 14  1  0
 22 18  1  0
 30 25  1  0
 44 32  1  0
 41 36  1  0
M  END
>  <Title>  (444) 
idAARBgen7

$$$$

     RDKit          2D

 25 28  0  0  0  0  0  0  0  0999 V2000
    3.7500   -1.2990    0.0000 C   0  0  0  0  0  0  0  0  0  0  0  0
    3.0000    0.0000    0.0000 O   0  0  0  0  0  0  0  0  0  0  0  0
    1.5000    0.0000    0.0000 C   0  0  0  0  0  0  0  0  0  0  0  0
    0.7500   -1.2990    0.0000 C   0  0  0  0  0  0  0  0  0  0  0  0
   -0.7500   -1.2990    0.0000 C   0  0  0  0  0  0  0  0  0  0  0  0
   -1.5000    0.0000    0.0000 C   0  0  0  0  0  0  0  0  0  0  0  0
   -3.0000    0.0000    0.0000 C   0  0  0  0  0  0  0  0  0  0  0  0
   -3.8817   -1.2135    0.0000 N   0  0  0  0  0  0  0  0  0  0  0  0
   -5.3083   -0.7500    0.0000 N   0  0  0  0  0  0  0  0  0  0  0  0
   -5.3083    0.7500    0.0000 N   0  0  0  0  0  0  0  0  0  0  0  0
   -3.8817    1.2135    0.0000 N   0  0  0  0  0  0  0  0  0  0  0  0
   -3.4182    2.6401    0.0000 C   0  0  0  0  0  0  0  0  0  0  0  0
   -1.9509    2.9520    0.0000 C   0  0  0  0  0  0  0  0  0  0  0  0
   -1.4874    4.3786    0.0000 C   0  0  0  0  0  0  0  0  0  0  0  0
   -2.4911    5.4933    0.0000 C   0  0  0  0  0  0  0  0  0  0  0  0
   -2.0276    6.9199    0.0000 C   0  0  0  0  0  0  0  0  0  0  0  0
   -0.5604    7.2317    0.0000 C   0  0  0  0  0  0  0  0  0  0  0  0
   -0.0968    8.6583    0.0000 C   0  0  0  0  0  0  0  0  0  0  0  0
   -1.1005    9.7730    0.0000 C   0  0  0  0  0  0  0  0  0  0  0  0
   -2.5677    9.4612    0.0000 C   0  0  0  0  0  0  0  0  0  0  0  0
   -3.0313    8.0346    0.0000 C   0  0  0  0  0  0  0  0  0  0  0  0
   -3.9583    5.1814    0.0000 C   0  0  0  0  0  0  0  0  0  0  0  0
   -4.4218    3.7548    0.0000 C   0  0  0  0  0  0  0  0  0  0  0  0
   -0.7500    1.2990    0.0000 C   0  0  0  0  0  0  0  0  0  0  0  0
    0.7500    1.2990    0.0000 C   0  0  0  0  0  0  0  0  0  0  0  0
  1  2  1  0
  2  3  1  0
  3  4  2  0
  4  5  1  0
  5  6  2  0
  6  7  1  0
  7  8  2  0
  8  9  1  0
  9 10  2  0
 10 11  1  0
 11 12  1  0
 12 13  2  0
 13 14  1  0
 14 15  2  0
 15 16  1  0
 16 17  2  0
 17 18  1  0
 18 19  2  0
 19 20  1  0
 20 21  2  0
 15 22  1  0
 22 23  2  0
  6 24  1  0
 24 25  2  0
 25  3  1  0
 11  7  1  0
 23 12  1  0
 21 16  1  0
M  END
>  <Title>  (445) 
idAARCgen7

$$$$

     RDKit          2D

 11 11  0  0  0  0  0  0  0  0999 V2000
    3.4598   -0.0000    0.0000 C   0  0  0  0  0  0  0  0  0  0  0  0
    1.9598    0.0000    0.0000 C   0  0  0  0  0  0  0  0  0  0  0  0
    1.3858   -1.3858    0.0000 C   0  0  0  0  0  0  0  0  0  0  0  0
   -0.0000   -1.9598    0.0000 C   0  0  0  0  0  0  0  0  0  0  0  0
   -1.3858   -1.3858    0.0000 C   0  0  0  0  0  0  0  0  0  0  0  0
   -1.9598    0.0000    0.0000 C   0  0  0  0  0  0  0  0  0  0  0  0
   -1.3858    1.3858    0.0000 C   0  0  0  0  0  0  0  0  0  0  0  0
   -2.4465    2.4465    0.0000 C   0  0  0  0  0  0  0  0  0  0  0  0
    0.0000    1.9598    0.0000 C   0  0  0  0  0  0  0  0  0  0  0  0
    0.0000    3.4598    0.0000 O   0  0  0  0  0  0  0  0  0  0  0  0
    1.3858    1.3858    0.0000 N   0  0  0  0  0  0  0  0  0  0  0  0
  1  2  1  0
  2  3  2  0
  3  4  1  0
  4  5  2  0
  5  6  1  0
  6  7  2  0
  7  8  1  0
  7  9  1  0
  9 10  2  0
  9 11  1  0
 11  2  1  0
M  END
>  <Title>  (446) 
idAARDgen7

$$$$

     RDKit          2D

 15 15  0  0  0  0  0  0  0  0999 V2000
    5.3839   -1.2990    0.0000 C   0  0  0  0  0  0  0  0  0  0  0  0
    4.6339    0.0000    0.0000 C   0  0  0  0  0  0  0  0  0  0  0  0
    3.1339    0.0000    0.0000 C   0  0  0  0  0  0  0  0  0  0  0  0
    2.7750    1.4564    0.0000 C   0  0  0  0  0  0  0  0  0  0  0  0
    1.7803    2.5792    0.0000 C   0  0  0  0  0  0  0  0  0  0  0  0
    0.3778    3.1111    0.0000 C   0  0  0  0  0  0  0  0  0  0  0  0
   -1.1113    2.9303    0.0000 C   0  0  0  0  0  0  0  0  0  0  0  0
   -2.3458    2.0782    0.0000 C   0  0  0  0  0  0  0  0  0  0  0  0
   -3.0429    0.7500    0.0000 C   0  0  0  0  0  0  0  0  0  0  0  0
   -3.0429   -0.7500    0.0000 C   0  0  0  0  0  0  0  0  0  0  0  0
   -2.3458   -2.0782    0.0000 C   0  0  0  0  0  0  0  0  0  0  0  0
   -1.1113   -2.9303    0.0000 C   0  0  0  0  0  0  0  0  0  0  0  0
    0.3778   -3.1111    0.0000 C   0  0  0  0  0  0  0  0  0  0  0  0
    1.7803   -2.5792    0.0000 C   0  0  0  0  0  0  0  0  0  0  0  0
    2.7750   -1.4564    0.0000 C   0  0  0  0  0  0  0  0  0  0  0  0
  1  2  1  0
  2  3  1  0
  3  4  1  0
  4  5  2  0
  5  6  1  0
  6  7  2  0
  7  8  1  0
  8  9  2  0
  9 10  1  0
 10 11  2  0
 11 12  1  0
 12 13  2  0
 13 14  1  0
 14 15  2  0
 15  3  1  0
M  END
>  <Title>  (447) 
idAAREgen7

$$$$

     RDKit          2D

 29 33  0  0  0  0  0  0  0  0999 V2000
   -6.9314    7.3885    0.0000 O   0  0  0  0  0  0  0  0  0  0  0  0
   -6.4679    5.9619    0.0000 C   0  0  0  0  0  0  0  0  0  0  0  0
   -5.0007    5.6501    0.0000 C   0  0  0  0  0  0  0  0  0  0  0  0
   -4.5372    4.2235    0.0000 C   0  0  0  0  0  0  0  0  0  0  0  0
   -5.5409    3.1088    0.0000 C   0  0  0  0  0  0  0  0  0  0  0  0
   -5.0773    1.6822    0.0000 O   0  0  0  0  0  0  0  0  0  0  0  0
   -3.6101    1.3703    0.0000 C   0  0  0  0  0  0  0  0  0  0  0  0
   -2.4954    2.3740    0.0000 N   0  0  0  0  0  0  0  0  0  0  0  0
   -1.1963    1.6240    0.0000 N   0  0  0  0  0  0  0  0  0  0  0  0
   -1.5082    0.1568    0.0000 N   0  0  0  0  0  0  0  0  0  0  0  0
   -3.0000    0.0000    0.0000 N   0  0  0  0  0  0  0  0  0  0  0  0
   -3.7500   -1.2990    0.0000 C   0  0  0  0  0  0  0  0  0  0  0  0
   -5.2500   -1.2990    0.0000 C   0  0  0  0  0  0  0  0  0  0  0  0
   -6.0000   -2.5981    0.0000 C   0  0  0  0  0  0  0  0  0  0  0  0
   -5.2500   -3.8971    0.0000 C   0  0  0  0  0  0  0  0  0  0  0  0
   -3.7500   -3.8971    0.0000 C   0  0  0  0  0  0  0  0  0  0  0  0
   -3.0000   -2.5981    0.0000 C   0  0  0  0  0  0  0  0  0  0  0  0
   -1.5000   -2.5981    0.0000 N   0  0  0  0  0  0  0  0  0  0  0  0
   -0.7500   -1.2990    0.0000 C   0  0  0  0  0  0  0  0  0  0  0  0
    0.7500   -1.2990    0.0000 C   0  0  0  0  0  0  0  0  0  0  0  0
    1.5000   -2.5981    0.0000 N   0  0  0  0  0  0  0  0  0  0  0  0
    0.7500   -3.8971    0.0000 C   0  0  0  0  0  0  0  0  0  0  0  0
    1.5000   -5.1962    0.0000 C   0  0  0  0  0  0  0  0  0  0  0  0
    0.7500   -6.4952    0.0000 C   0  0  0  0  0  0  0  0  0  0  0  0
   -0.7500   -6.4952    0.0000 C   0  0  0  0  0  0  0  0  0  0  0  0
   -1.5000   -5.1962    0.0000 C   0  0  0  0  0  0  0  0  0  0  0  0
   -0.7500   -3.8971    0.0000 C   0  0  0  0  0  0  0  0  0  0  0  0
   -7.0081    3.4206    0.0000 N   0  0  0  0  0  0  0  0  0  0  0  0
   -7.4716    4.8472    0.0000 N   0  0  0  0  0  0  0  0  0  0  0  0
  1  2  1  0
  2  3  2  0
  3  4  1  0
  4  5  2  0
  5  6  1  0
  6  7  1  0
  7  8  2  0
  8  9  1  0
  9 10  2  0
 10 11  1  0
 11 12  1  0
 12 13  2  0
 13 14  1  0
 14 15  2  0
 15 16  1  0
 16 17  2  0
 17 18  1  0
 18 19  1  0
 19 20  1  0
 20 21  1  0
 21 22  1  0
 22 23  2  0
 23 24  1  0
 24 25  2  0
 25 26  1  0
 26 27  2  0
  5 28  1  0
 28 29  2  0
 29  2  1  0
 11  7  1  0
 17 12  1  0
 27 18  1  0
 27 22  1  0
M  END
>  <Title>  (448) 
idAARFgen7

$$$$

     RDKit          2D

 57 64  0  0  0  0  0  0  0  0999 V2000
    4.3870  -13.2528    0.0000 C   0  0  0  0  0  0  0  0  0  0  0  0
    2.8870  -13.2528    0.0000 C   0  0  0  0  0  0  0  0  0  0  0  0
    2.1370  -14.5518    0.0000 O   0  0  0  0  0  0  0  0  0  0  0  0
    2.1370  -11.9538    0.0000 O   0  0  0  0  0  0  0  0  0  0  0  0
    0.6370  -11.9538    0.0000 C   0  0  0  0  0  0  0  0  0  0  0  0
   -0.1130  -13.2528    0.0000 C   0  0  0  0  0  0  0  0  0  0  0  0
   -1.6130  -13.2528    0.0000 C   0  0  0  0  0  0  0  0  0  0  0  0
   -2.3630  -11.9538    0.0000 C   0  0  0  0  0  0  0  0  0  0  0  0
   -3.8630  -11.9538    0.0000 C   0  0  0  0  0  0  0  0  0  0  0  0
   -4.6130  -13.2528    0.0000 O   0  0  0  0  0  0  0  0  0  0  0  0
   -4.6130  -10.6547    0.0000 N   0  0  0  0  0  0  0  0  0  0  0  0
   -6.1130  -10.6547    0.0000 C   0  0  0  0  0  0  0  0  0  0  0  0
   -6.9947  -11.8682    0.0000 N   0  0  0  0  0  0  0  0  0  0  0  0
   -8.4213  -11.4047    0.0000 N   0  0  0  0  0  0  0  0  0  0  0  0
   -8.4213   -9.9047    0.0000 N   0  0  0  0  0  0  0  0  0  0  0  0
   -6.9947   -9.4412    0.0000 N   0  0  0  0  0  0  0  0  0  0  0  0
   -6.5312   -8.0146    0.0000 C   0  0  0  0  0  0  0  0  0  0  0  0
   -5.0639   -7.7027    0.0000 C   0  0  0  0  0  0  0  0  0  0  0  0
   -4.6004   -6.2761    0.0000 C   0  0  0  0  0  0  0  0  0  0  0  0
   -5.6041   -5.1614    0.0000 C   0  0  0  0  0  0  0  0  0  0  0  0
   -5.1406   -3.7348    0.0000 C   0  0  0  0  0  0  0  0  0  0  0  0
   -3.6406   -3.7348    0.0000 C   0  0  0  0  0  0  0  0  0  0  0  0
   -2.4271   -2.8532    0.0000 C   0  0  0  0  0  0  0  0  0  0  0  0
   -1.9635   -1.4266    0.0000 C   0  0  0  0  0  0  0  0  0  0  0  0
   -0.7500   -2.3083    0.0000 C   0  0  0  0  0  0  0  0  0  0  0  0
    0.7500   -2.3083    0.0000 C   0  0  0  0  0  0  0  0  0  0  0  0
    1.9635   -1.4266    0.0000 C   0  0  0  0  0  0  0  0  0  0  0  0
    2.4271    0.0000    0.0000 C   0  0  0  0  0  0  0  0  0  0  0  0
    1.9635    1.4266    0.0000 C   0  0  0  0  0  0  0  0  0  0  0  0
    0.7500    2.3083    0.0000 C   0  0  0  0  0  0  0  0  0  0  0  0
   -0.7500    2.3083    0.0000 C   0  0  0  0  0  0  0  0  0  0  0  0
   -1.9635    1.4266    0.0000 C   0  0  0  0  0  0  0  0  0  0  0  0
   -2.4271    0.0000    0.0000 C   0  0  0  0  0  0  0  0  0  0  0  0
   -3.6406    0.8817    0.0000 N   0  0  0  0  0  0  0  0  0  0  0  0
   -5.1406    0.8817    0.0000 N   0  0  0  0  0  0  0  0  0  0  0  0
   -6.3541    0.0000    0.0000 N   0  0  0  0  0  0  0  0  0  0  0  0
   -6.8176   -1.4266    0.0000 N   0  0  0  0  0  0  0  0  0  0  0  0
   -6.3541   -2.8532    0.0000 C   0  0  0  0  0  0  0  0  0  0  0  0
   -7.0713   -5.4733    0.0000 C   0  0  0  0  0  0  0  0  0  0  0  0
   -7.5348   -6.8999    0.0000 C   0  0  0  0  0  0  0  0  0  0  0  0
   -9.0021   -7.2118    0.0000 C   0  0  0  0  0  0  0  0  0  0  0  0
  -10.0058   -6.0970    0.0000 C   0  0  0  0  0  0  0  0  0  0  0  0
  -11.4730   -6.4089    0.0000 C   0  0  0  0  0  0  0  0  0  0  0  0
  -11.9365   -7.8355    0.0000 C   0  0  0  0  0  0  0  0  0  0  0  0
  -13.4037   -8.1474    0.0000 N   0  0  0  0  0  0  0  0  0  0  0  0
  -14.4074   -7.0326    0.0000 C   0  0  0  0  0  0  0  0  0  0  0  0
  -13.9439   -5.6061    0.0000 O   0  0  0  0  0  0  0  0  0  0  0  0
  -15.8747   -7.3445    0.0000 C   0  0  0  0  0  0  0  0  0  0  0  0
  -16.8783   -6.2298    0.0000 C   0  0  0  0  0  0  0  0  0  0  0  0
  -18.3456   -6.5417    0.0000 C   0  0  0  0  0  0  0  0  0  0  0  0
  -18.8091   -7.9682    0.0000 C   0  0  0  0  0  0  0  0  0  0  0  0
  -17.8054   -9.0830    0.0000 C   0  0  0  0  0  0  0  0  0  0  0  0
  -16.3382   -8.7711    0.0000 C   0  0  0  0  0  0  0  0  0  0  0  0
  -10.9328   -8.9502    0.0000 C   0  0  0  0  0  0  0  0  0  0  0  0
   -9.4656   -8.6383    0.0000 C   0  0  0  0  0  0  0  0  0  0  0  0
   -1.6130  -10.6547    0.0000 C   0  0  0  0  0  0  0  0  0  0  0  0
   -0.1130  -10.6547    0.0000 C   0  0  0  0  0  0  0  0  0  0  0  0
  1  2  1  0
  2  3  2  0
  2  4  1  0
  4  5  1  0
  5  6  2  0
  6  7  1  0
  7  8  2  0
  8  9  1  0
  9 10  2  0
  9 11  1  0
 11 12  1  0
 12 13  2  0
 13 14  1  0
 14 15  2  0
 15 16  1  0
 16 17  1  0
 17 18  2  0
 18 19  1  0
 19 20  2  0
 20 21  1  0
 21 22  2  0
 22 23  1  0
 23 24  2  0
 24 25  1  0
 25 26  2  0
 26 27  1  0
 27 28  2  0
 28 29  1  0
 29 30  2  0
 30 31  1  0
 31 32  2  0
 32 33  1  0
 33 34  2  0
 34 35  1  0
 35 36  2  0
 36 37  1  0
 37 38  2  0
 20 39  1  0
 39 40  2  0
 40 41  1  0
 41 42  2  0
 42 43  1  0
 43 44  2  0
 44 45  1  0
 45 46  1  0
 46 47  2  0
 46 48  1  0
 48 49  2  0
 49 50  1  0
 50 51  2  0
 51 52  1  0
 52 53  2  0
 44 54  1  0
 54 55  2  0
  8 56  1  0
 56 57  2  0
 57  5  1  0
 16 12  1  0
 40 17  1  0
 55 41  1  0
 38 21  1  0
 53 48  1  0
 33 24  1  0
 38 27  1  0
M  END
>  <Title>  (449) 
idAARGgen7

$$$$

     RDKit          2D

 28 31  0  0  0  0  0  0  0  0999 V2000
    3.0000    0.0000    0.0000 C   0  0  0  0  0  0  0  0  0  0  0  0
    1.5000    0.0000    0.0000 C   0  0  0  0  0  0  0  0  0  0  0  0
    0.7500   -1.2990    0.0000 C   0  0  0  0  0  0  0  0  0  0  0  0
   -0.7500   -1.2990    0.0000 C   0  0  0  0  0  0  0  0  0  0  0  0
   -1.5000    0.0000    0.0000 C   0  0  0  0  0  0  0  0  0  0  0  0
   -3.0000    0.0000    0.0000 C   0  0  0  0  0  0  0  0  0  0  0  0
   -3.7500   -1.2990    0.0000 O   0  0  0  0  0  0  0  0  0  0  0  0
   -3.7500    1.2990    0.0000 N   0  0  0  0  0  0  0  0  0  0  0  0
   -5.2500    1.2990    0.0000 C   0  0  0  0  0  0  0  0  0  0  0  0
   -6.1317    0.0855    0.0000 N   0  0  0  0  0  0  0  0  0  0  0  0
   -7.5583    0.5490    0.0000 N   0  0  0  0  0  0  0  0  0  0  0  0
   -7.5583    2.0490    0.0000 N   0  0  0  0  0  0  0  0  0  0  0  0
   -6.1317    2.5126    0.0000 N   0  0  0  0  0  0  0  0  0  0  0  0
   -5.6682    3.9391    0.0000 C   0  0  0  0  0  0  0  0  0  0  0  0
   -4.2009    4.2510    0.0000 C   0  0  0  0  0  0  0  0  0  0  0  0
   -3.7374    5.6776    0.0000 C   0  0  0  0  0  0  0  0  0  0  0  0
   -4.7411    6.7923    0.0000 C   0  0  0  0  0  0  0  0  0  0  0  0
   -4.2776    8.2189    0.0000 C   0  0  0  0  0  0  0  0  0  0  0  0
   -2.8104    8.5308    0.0000 C   0  0  0  0  0  0  0  0  0  0  0  0
   -2.3468    9.9574    0.0000 C   0  0  0  0  0  0  0  0  0  0  0  0
   -3.3505   11.0721    0.0000 C   0  0  0  0  0  0  0  0  0  0  0  0
   -4.8177   10.7602    0.0000 C   0  0  0  0  0  0  0  0  0  0  0  0
   -5.2813    9.3336    0.0000 C   0  0  0  0  0  0  0  0  0  0  0  0
   -6.2083    6.4805    0.0000 C   0  0  0  0  0  0  0  0  0  0  0  0
   -6.6718    5.0539    0.0000 C   0  0  0  0  0  0  0  0  0  0  0  0
   -0.7500    1.2990    0.0000 C   0  0  0  0  0  0  0  0  0  0  0  0
   -1.5000    2.5981    0.0000 O   0  0  0  0  0  0  0  0  0  0  0  0
    0.7500    1.2990    0.0000 N   0  0  0  0  0  0  0  0  0  0  0  0
  1  2  1  0
  2  3  2  0
  3  4  1  0
  4  5  2  0
  5  6  1  0
  6  7  2  0
  6  8  1  0
  8  9  1  0
  9 10  2  0
 10 11  1  0
 11 12  2  0
 12 13  1  0
 13 14  1  0
 14 15  2  0
 15 16  1  0
 16 17  2  0
 17 18  1  0
 18 19  2  0
 19 20  1  0
 20 21  2  0
 21 22  1  0
 22 23  2  0
 17 24  1  0
 24 25  2  0
  5 26  1  0
 26 27  2  0
 26 28  1  0
 28  2  1  0
 13  9  1  0
 25 14  1  0
 23 18  1  0
M  END
>  <Title>  (450) 
idAARHgen7

$$$$

     RDKit          2D

 25 28  0  0  0  0  0  0  0  0999 V2000
    3.0000    0.0000    0.0000 C   0  0  0  0  0  0  0  0  0  0  0  0
    1.5000    0.0000    0.0000 C   0  0  0  0  0  0  0  0  0  0  0  0
    0.7500   -1.2990    0.0000 C   0  0  0  0  0  0  0  0  0  0  0  0
   -0.7500   -1.2990    0.0000 C   0  0  0  0  0  0  0  0  0  0  0  0
   -1.5000    0.0000    0.0000 C   0  0  0  0  0  0  0  0  0  0  0  0
   -3.0000    0.0000    0.0000 C   0  0  0  0  0  0  0  0  0  0  0  0
   -3.8817   -1.2135    0.0000 N   0  0  0  0  0  0  0  0  0  0  0  0
   -5.3083   -0.7500    0.0000 N   0  0  0  0  0  0  0  0  0  0  0  0
   -5.3083    0.7500    0.0000 N   0  0  0  0  0  0  0  0  0  0  0  0
   -3.8817    1.2135    0.0000 N   0  0  0  0  0  0  0  0  0  0  0  0
   -3.4182    2.6401    0.0000 C   0  0  0  0  0  0  0  0  0  0  0  0
   -4.2998    3.8536    0.0000 C   0  0  0  0  0  0  0  0  0  0  0  0
   -3.4182    5.0672    0.0000 C   0  0  0  0  0  0  0  0  0  0  0  0
   -1.9916    4.6036    0.0000 C   0  0  0  0  0  0  0  0  0  0  0  0
   -0.7780    5.4853    0.0000 C   0  0  0  0  0  0  0  0  0  0  0  0
    0.5923    4.8752    0.0000 C   0  0  0  0  0  0  0  0  0  0  0  0
    1.8058    5.7569    0.0000 C   0  0  0  0  0  0  0  0  0  0  0  0
    1.6490    7.2487    0.0000 C   0  0  0  0  0  0  0  0  0  0  0  0
    0.2787    7.8588    0.0000 C   0  0  0  0  0  0  0  0  0  0  0  0
   -0.9348    6.9771    0.0000 C   0  0  0  0  0  0  0  0  0  0  0  0
   -1.9916    3.1036    0.0000 C   0  0  0  0  0  0  0  0  0  0  0  0
   -0.7780    2.2220    0.0000 O   0  0  0  0  0  0  0  0  0  0  0  0
   -0.7500    1.2990    0.0000 N   0  0  0  0  0  0  0  0  0  0  0  0
    0.7500    1.2990    0.0000 C   0  0  0  0  0  0  0  0  0  0  0  0
    1.5000    2.5981    0.0000 O   0  0  0  0  0  0  0  0  0  0  0  0
  1  2  1  0
  2  3  2  0
  3  4  1  0
  4  5  2  0
  5  6  1  0
  6  7  2  0
  7  8  1  0
  8  9  2  0
  9 10  1  0
 10 11  1  0
 11 12  2  0
 12 13  1  0
 13 14  2  0
 14 15  1  0
 15 16  2  0
 16 17  1  0
 17 18  2  0
 18 19  1  0
 19 20  2  0
 14 21  1  0
 21 22  2  0
  5 23  1  0
 23 24  1  0
 24 25  2  0
 24  2  1  0
 10  6  1  0
 21 11  1  0
 20 15  1  0
M  END
>  <Title>  (451) 
idAARIgen7

$$$$

     RDKit          2D

  2  1  0  0  0  0  0  0  0  0999 V2000
    0.0000    0.0000    0.0000 C   0  0  0  0  0  0  0  0  0  0  0  0
    1.2990    0.7500    0.0000 O   0  0  0  0  0  0  0  0  0  0  0  0
  1  2  1  0
M  END
>  <Title>  (452) 
idAARJgen7

$$$$

     RDKit          2D

 22 22  0  0  0  0  0  0  0  0999 V2000
   10.1205   -3.8971    0.0000 C   0  0  0  0  0  0  0  0  0  0  0  0
    9.3705   -2.5981    0.0000 C   0  0  0  0  0  0  0  0  0  0  0  0
   10.1205   -1.2990    0.0000 O   0  0  0  0  0  0  0  0  0  0  0  0
    7.8705   -2.5981    0.0000 N   0  0  0  0  0  0  0  0  0  0  0  0
    7.1205   -1.2990    0.0000 C   0  0  0  0  0  0  0  0  0  0  0  0
    7.8705    0.0000    0.0000 O   0  0  0  0  0  0  0  0  0  0  0  0
    5.6205   -1.2990    0.0000 C   0  0  0  0  0  0  0  0  0  0  0  0
    4.8705    0.0000    0.0000 C   0  0  0  0  0  0  0  0  0  0  0  0
    3.3705    0.0000    0.0000 C   0  0  0  0  0  0  0  0  0  0  0  0
    3.0367   -1.4624    0.0000 C   0  0  0  0  0  0  0  0  0  0  0  0
    2.1015   -2.6351    0.0000 C   0  0  0  0  0  0  0  0  0  0  0  0
    0.7500   -3.2860    0.0000 C   0  0  0  0  0  0  0  0  0  0  0  0
   -0.7500   -3.2860    0.0000 C   0  0  0  0  0  0  0  0  0  0  0  0
   -2.1015   -2.6351    0.0000 C   0  0  0  0  0  0  0  0  0  0  0  0
   -3.0367   -1.4624    0.0000 C   0  0  0  0  0  0  0  0  0  0  0  0
   -3.3705    0.0000    0.0000 C   0  0  0  0  0  0  0  0  0  0  0  0
   -3.0367    1.4624    0.0000 C   0  0  0  0  0  0  0  0  0  0  0  0
   -2.1015    2.6351    0.0000 C   0  0  0  0  0  0  0  0  0  0  0  0
   -0.7500    3.2860    0.0000 C   0  0  0  0  0  0  0  0  0  0  0  0
    0.7500    3.2860    0.0000 C   0  0  0  0  0  0  0  0  0  0  0  0
    2.1015    2.6351    0.0000 C   0  0  0  0  0  0  0  0  0  0  0  0
    3.0367    1.4624    0.0000 C   0  0  0  0  0  0  0  0  0  0  0  0
  1  2  1  0
  2  3  2  0
  2  4  1  0
  4  5  1  0
  5  6  2  0
  5  7  1  0
  7  8  1  0
  8  9  1  0
  9 10  2  0
 10 11  1  0
 11 12  2  0
 12 13  1  0
 13 14  2  0
 14 15  1  0
 15 16  2  0
 16 17  1  0
 17 18  2  0
 18 19  1  0
 19 20  2  0
 20 21  1  0
 21 22  2  0
 22  9  1  0
M  END
>  <Title>  (453) 
idAARKgen7

$$$$

     RDKit          2D

 37 41  0  0  0  0  0  0  0  0999 V2000
    3.0000    0.0000    0.0000 C   0  0  0  0  0  0  0  0  0  0  0  0
    1.5000    0.0000    0.0000 C   0  0  0  0  0  0  0  0  0  0  0  0
    0.7500   -1.2990    0.0000 C   0  0  0  0  0  0  0  0  0  0  0  0
   -0.7500   -1.2990    0.0000 C   0  0  0  0  0  0  0  0  0  0  0  0
   -1.5000    0.0000    0.0000 C   0  0  0  0  0  0  0  0  0  0  0  0
   -3.0000    0.0000    0.0000 C   0  0  0  0  0  0  0  0  0  0  0  0
   -3.8817   -1.2135    0.0000 N   0  0  0  0  0  0  0  0  0  0  0  0
   -5.3083   -0.7500    0.0000 N   0  0  0  0  0  0  0  0  0  0  0  0
   -5.3083    0.7500    0.0000 N   0  0  0  0  0  0  0  0  0  0  0  0
   -3.8817    1.2135    0.0000 N   0  0  0  0  0  0  0  0  0  0  0  0
   -3.4182    2.6401    0.0000 C   0  0  0  0  0  0  0  0  0  0  0  0
   -1.9509    2.9520    0.0000 C   0  0  0  0  0  0  0  0  0  0  0  0
   -1.4874    4.3786    0.0000 C   0  0  0  0  0  0  0  0  0  0  0  0
   -2.4911    5.4933    0.0000 C   0  0  0  0  0  0  0  0  0  0  0  0
   -2.0276    6.9199    0.0000 C   0  0  0  0  0  0  0  0  0  0  0  0
   -3.0313    8.0346    0.0000 O   0  0  0  0  0  0  0  0  0  0  0  0
   -0.5604    7.2317    0.0000 N   0  0  0  0  0  0  0  0  0  0  0  0
   -0.0968    8.6583    0.0000 C   0  0  0  0  0  0  0  0  0  0  0  0
   -0.9785    9.8718    0.0000 N   0  0  0  0  0  0  0  0  0  0  0  0
   -0.0968   11.0854    0.0000 N   0  0  0  0  0  0  0  0  0  0  0  0
    1.3298   10.6218    0.0000 N   0  0  0  0  0  0  0  0  0  0  0  0
    1.3298    9.1218    0.0000 N   0  0  0  0  0  0  0  0  0  0  0  0
    2.5433    8.2402    0.0000 C   0  0  0  0  0  0  0  0  0  0  0  0
    2.3865    6.7484    0.0000 C   0  0  0  0  0  0  0  0  0  0  0  0
    3.6000    5.8667    0.0000 C   0  0  0  0  0  0  0  0  0  0  0  0
    4.9703    6.4768    0.0000 C   0  0  0  0  0  0  0  0  0  0  0  0
    6.1839    5.5951    0.0000 C   0  0  0  0  0  0  0  0  0  0  0  0
    7.5542    6.2052    0.0000 O   0  0  0  0  0  0  0  0  0  0  0  0
    6.0271    4.1033    0.0000 N   0  0  0  0  0  0  0  0  0  0  0  0
    7.2406    3.2217    0.0000 O   0  0  0  0  0  0  0  0  0  0  0  0
    5.1271    7.9686    0.0000 C   0  0  0  0  0  0  0  0  0  0  0  0
    3.9136    8.8503    0.0000 C   0  0  0  0  0  0  0  0  0  0  0  0
   -3.9583    5.1814    0.0000 C   0  0  0  0  0  0  0  0  0  0  0  0
   -4.9620    6.2961    0.0000 O   0  0  0  0  0  0  0  0  0  0  0  0
   -4.4218    3.7548    0.0000 N   0  0  0  0  0  0  0  0  0  0  0  0
   -0.7500    1.2990    0.0000 C   0  0  0  0  0  0  0  0  0  0  0  0
    0.7500    1.2990    0.0000 C   0  0  0  0  0  0  0  0  0  0  0  0
  1  2  1  0
  2  3  2  0
  3  4  1  0
  4  5  2  0
  5  6  1  0
  6  7  2  0
  7  8  1  0
  8  9  2  0
  9 10  1  0
 10 11  1  0
 11 12  2  0
 12 13  1  0
 13 14  2  0
 14 15  1  0
 15 16  2  0
 15 17  1  0
 17 18  1  0
 18 19  2  0
 19 20  1  0
 20 21  2  0
 21 22  1  0
 22 23  1  0
 23 24  2  0
 24 25  1  0
 25 26  2  0
 26 27  1  0
 27 28  2  0
 27 29  1  0
 29 30  1  0
 26 31  1  0
 31 32  1  0
 14 33  1  0
 33 34  2  0
 33 35  1  0
  5 36  1  0
 36 37  2  0
 37  2  1  0
 10  6  1  0
 35 11  1  0
 22 18  1  0
 32 23  1  0
M  END
>  <Title>  (454) 
idAARLgen7

$$$$

     RDKit          2D

 57 63  0  0  0  0  0  0  0  0999 V2000
    8.4775    6.9923    0.0000 C   0  0  0  0  0  0  0  0  0  0  0  0
    9.8108    6.3050    0.0000 C   0  0  0  0  0  0  0  0  0  0  0  0
   11.0727    7.1160    0.0000 C   0  0  0  0  0  0  0  0  0  0  0  0
   12.4059    6.4286    0.0000 C   0  0  0  0  0  0  0  0  0  0  0  0
   12.4773    4.9303    0.0000 C   0  0  0  0  0  0  0  0  0  0  0  0
   13.8105    4.2430    0.0000 C   0  0  0  0  0  0  0  0  0  0  0  0
   15.1503    4.9176    0.0000 N   0  0  0  0  0  0  0  0  0  0  0  0
   16.2059    3.8519    0.0000 C   0  0  0  0  0  0  0  0  0  0  0  0
   15.5185    2.5187    0.0000 N   0  0  0  0  0  0  0  0  0  0  0  0
   14.0381    2.7604    0.0000 N   0  0  0  0  0  0  0  0  0  0  0  0
   12.9724    1.7048    0.0000 C   0  0  0  0  0  0  0  0  0  0  0  0
   11.5254    2.0999    0.0000 C   0  0  0  0  0  0  0  0  0  0  0  0
   10.4597    1.0443    0.0000 C   0  0  0  0  0  0  0  0  0  0  0  0
   10.8410   -0.4064    0.0000 C   0  0  0  0  0  0  0  0  0  0  0  0
    9.7754   -1.4620    0.0000 C   0  0  0  0  0  0  0  0  0  0  0  0
    8.3283   -1.0669    0.0000 C   0  0  0  0  0  0  0  0  0  0  0  0
    7.2626   -2.1225    0.0000 C   0  0  0  0  0  0  0  0  0  0  0  0
    7.6440   -3.5732    0.0000 C   0  0  0  0  0  0  0  0  0  0  0  0
    6.5783   -4.6288    0.0000 C   0  0  0  0  0  0  0  0  0  0  0  0
    6.9596   -6.0796    0.0000 O   0  0  0  0  0  0  0  0  0  0  0  0
    5.1312   -4.2337    0.0000 N   0  0  0  0  0  0  0  0  0  0  0  0
    4.0655   -5.2893    0.0000 C   0  0  0  0  0  0  0  0  0  0  0  0
    2.6185   -4.8942    0.0000 C   0  0  0  0  0  0  0  0  0  0  0  0
    1.5528   -5.9498    0.0000 C   0  0  0  0  0  0  0  0  0  0  0  0
    1.9341   -7.4005    0.0000 C   0  0  0  0  0  0  0  0  0  0  0  0
    3.3812   -7.7956    0.0000 C   0  0  0  0  0  0  0  0  0  0  0  0
    4.4469   -6.7400    0.0000 C   0  0  0  0  0  0  0  0  0  0  0  0
    9.0910   -3.9684    0.0000 C   0  0  0  0  0  0  0  0  0  0  0  0
   10.1567   -2.9128    0.0000 C   0  0  0  0  0  0  0  0  0  0  0  0
   12.2881   -0.8016    0.0000 C   0  0  0  0  0  0  0  0  0  0  0  0
   13.3538    0.2540    0.0000 C   0  0  0  0  0  0  0  0  0  0  0  0
   11.2154    4.1194    0.0000 N   0  0  0  0  0  0  0  0  0  0  0  0
    9.8822    4.8067    0.0000 C   0  0  0  0  0  0  0  0  0  0  0  0
    8.6203    3.9957    0.0000 C   0  0  0  0  0  0  0  0  0  0  0  0
    7.2870    4.6831    0.0000 C   0  0  0  0  0  0  0  0  0  0  0  0
    6.0251    3.8721    0.0000 C   0  0  0  0  0  0  0  0  0  0  0  0
    6.0965    2.3738    0.0000 C   0  0  0  0  0  0  0  0  0  0  0  0
    4.8346    1.5629    0.0000 N   0  0  0  0  0  0  0  0  0  0  0  0
    3.5014    2.2502    0.0000 C   0  0  0  0  0  0  0  0  0  0  0  0
    3.4300    3.7485    0.0000 O   0  0  0  0  0  0  0  0  0  0  0  0
    2.2395    1.4392    0.0000 C   0  0  0  0  0  0  0  0  0  0  0  0
    2.6621    0.0000    0.0000 C   0  0  0  0  0  0  0  0  0  0  0  0
    2.2395   -1.4392    0.0000 N   0  0  0  0  0  0  0  0  0  0  0  0
    1.1059   -2.4215    0.0000 C   0  0  0  0  0  0  0  0  0  0  0  0
    1.7290   -3.7860    0.0000 N   0  0  0  0  0  0  0  0  0  0  0  0
   -0.3789   -2.6350    0.0000 C   0  0  0  0  0  0  0  0  0  0  0  0
   -0.5923   -4.1197    0.0000 C   0  0  0  0  0  0  0  0  0  0  0  0
   -1.7433   -2.0119    0.0000 C   0  0  0  0  0  0  0  0  0  0  0  0
   -2.5543   -0.7500    0.0000 C   0  0  0  0  0  0  0  0  0  0  0  0
   -2.5543    0.7500    0.0000 C   0  0  0  0  0  0  0  0  0  0  0  0
   -1.7433    2.0119    0.0000 C   0  0  0  0  0  0  0  0  0  0  0  0
   -0.3789    2.6350    0.0000 C   0  0  0  0  0  0  0  0  0  0  0  0
    1.1059    2.4215    0.0000 C   0  0  0  0  0  0  0  0  0  0  0  0
    1.7290    3.7860    0.0000 C   0  0  0  0  0  0  0  0  0  0  0  0
    7.4298    1.6865    0.0000 C   0  0  0  0  0  0  0  0  0  0  0  0
    7.5011    0.1882    0.0000 O   0  0  0  0  0  0  0  0  0  0  0  0
    8.6916    2.4974    0.0000 N   0  0  0  0  0  0  0  0  0  0  0  0
  1  2  1  0
  2  3  2  0
  3  4  1  0
  4  5  2  0
  5  6  1  0
  6  7  2  0
  7  8  1  0
  8  9  2  0
  9 10  1  0
 10 11  1  0
 11 12  2  0
 12 13  1  0
 13 14  2  0
 14 15  1  0
 15 16  2  0
 16 17  1  0
 17 18  2  0
 18 19  1  0
 19 20  2  0
 19 21  1  0
 21 22  1  0
 22 23  2  0
 23 24  1  0
 24 25  2  0
 25 26  1  0
 26 27  2  0
 18 28  1  0
 28 29  2  0
 14 30  1  0
 30 31  2  0
  5 32  1  0
 32 33  2  0
 33 34  1  0
 34 35  2  0
 35 36  1  0
 36 37  2  0
 37 38  1  0
 38 39  1  0
 39 40  2  0
 39 41  1  0
 41 42  1  0
 42 43  1  0
 43 44  1  0
 44 45  1  0
 44 46  2  0
 46 47  1  0
 46 48  1  0
 48 49  2  0
 49 50  1  0
 50 51  2  0
 51 52  1  0
 52 53  2  0
 53 54  1  0
 37 55  1  0
 55 56  2  0
 55 57  1  0
 33  2  1  0
 57 34  1  0
 10  6  1  0
 31 11  1  0
 53 41  1  0
 29 15  1  0
 27 22  1  0
M  END
>  <Title>  (455) 
idAARMgen7

$$$$

     RDKit          2D

 38 43  0  0  0  0  0  0  0  0999 V2000
    3.0000    0.0000    0.0000 C   0  0  0  0  0  0  0  0  0  0  0  0
    1.5000    0.0000    0.0000 C   0  0  0  0  0  0  0  0  0  0  0  0
    0.7500   -1.2990    0.0000 C   0  0  0  0  0  0  0  0  0  0  0  0
   -0.7500   -1.2990    0.0000 C   0  0  0  0  0  0  0  0  0  0  0  0
   -1.5000    0.0000    0.0000 C   0  0  0  0  0  0  0  0  0  0  0  0
   -3.0000    0.0000    0.0000 C   0  0  0  0  0  0  0  0  0  0  0  0
   -3.8817   -1.2135    0.0000 N   0  0  0  0  0  0  0  0  0  0  0  0
   -5.3083   -0.7500    0.0000 N   0  0  0  0  0  0  0  0  0  0  0  0
   -5.3083    0.7500    0.0000 N   0  0  0  0  0  0  0  0  0  0  0  0
   -3.8817    1.2135    0.0000 N   0  0  0  0  0  0  0  0  0  0  0  0
   -3.4182    2.6401    0.0000 C   0  0  0  0  0  0  0  0  0  0  0  0
   -1.9509    2.9520    0.0000 C   0  0  0  0  0  0  0  0  0  0  0  0
   -1.4874    4.3786    0.0000 C   0  0  0  0  0  0  0  0  0  0  0  0
   -2.4911    5.4933    0.0000 C   0  0  0  0  0  0  0  0  0  0  0  0
   -2.0276    6.9199    0.0000 C   0  0  0  0  0  0  0  0  0  0  0  0
   -3.0313    8.0346    0.0000 O   0  0  0  0  0  0  0  0  0  0  0  0
   -0.5604    7.2317    0.0000 N   0  0  0  0  0  0  0  0  0  0  0  0
   -0.0968    8.6583    0.0000 C   0  0  0  0  0  0  0  0  0  0  0  0
   -0.9785    9.8718    0.0000 N   0  0  0  0  0  0  0  0  0  0  0  0
   -0.0968   11.0854    0.0000 N   0  0  0  0  0  0  0  0  0  0  0  0
    1.3298   10.6218    0.0000 N   0  0  0  0  0  0  0  0  0  0  0  0
    1.3298    9.1218    0.0000 N   0  0  0  0  0  0  0  0  0  0  0  0
    2.5433    8.2402    0.0000 C   0  0  0  0  0  0  0  0  0  0  0  0
    2.3865    6.7484    0.0000 C   0  0  0  0  0  0  0  0  0  0  0  0
    3.6000    5.8667    0.0000 C   0  0  0  0  0  0  0  0  0  0  0  0
    4.9703    6.4768    0.0000 C   0  0  0  0  0  0  0  0  0  0  0  0
    6.1839    5.5951    0.0000 C   0  0  0  0  0  0  0  0  0  0  0  0
    6.0271    4.1033    0.0000 C   0  0  0  0  0  0  0  0  0  0  0  0
    7.2406    3.2217    0.0000 C   0  0  0  0  0  0  0  0  0  0  0  0
    8.6109    3.8318    0.0000 C   0  0  0  0  0  0  0  0  0  0  0  0
    8.7677    5.3236    0.0000 C   0  0  0  0  0  0  0  0  0  0  0  0
    7.5542    6.2052    0.0000 C   0  0  0  0  0  0  0  0  0  0  0  0
    5.1271    7.9686    0.0000 C   0  0  0  0  0  0  0  0  0  0  0  0
    3.9136    8.8503    0.0000 C   0  0  0  0  0  0  0  0  0  0  0  0
   -3.9583    5.1814    0.0000 C   0  0  0  0  0  0  0  0  0  0  0  0
   -4.4218    3.7548    0.0000 C   0  0  0  0  0  0  0  0  0  0  0  0
   -0.7500    1.2990    0.0000 C   0  0  0  0  0  0  0  0  0  0  0  0
    0.7500    1.2990    0.0000 C   0  0  0  0  0  0  0  0  0  0  0  0
  1  2  1  0
  2  3  2  0
  3  4  1  0
  4  5  2  0
  5  6  1  0
  6  7  2  0
  7  8  1  0
  8  9  2  0
  9 10  1  0
 10 11  1  0
 11 12  2  0
 12 13  1  0
 13 14  2  0
 14 15  1  0
 15 16  2  0
 15 17  1  0
 17 18  1  0
 18 19  2  0
 19 20  1  0
 20 21  2  0
 21 22  1  0
 22 23  1  0
 23 24  2  0
 24 25  1  0
 25 26  2  0
 26 27  1  0
 27 28  2  0
 28 29  1  0
 29 30  2  0
 30 31  1  0
 31 32  2  0
 26 33  1  0
 33 34  2  0
 14 35  1  0
 35 36  2  0
  5 37  1  0
 37 38  2  0
 38  2  1  0
 10  6  1  0
 36 11  1  0
 22 18  1  0
 34 23  1  0
 32 27  1  0
M  END
>  <Title>  (456) 
idAARNgen7

$$$$

     RDKit          2D

 38 43  0  0  0  0  0  0  0  0999 V2000
    3.0000    0.0000    0.0000 C   0  0  0  0  0  0  0  0  0  0  0  0
    1.5000    0.0000    0.0000 C   0  0  0  0  0  0  0  0  0  0  0  0
    0.7500    1.2990    0.0000 C   0  0  0  0  0  0  0  0  0  0  0  0
   -0.7500    1.2990    0.0000 C   0  0  0  0  0  0  0  0  0  0  0  0
   -1.5000    0.0000    0.0000 C   0  0  0  0  0  0  0  0  0  0  0  0
   -3.0000    0.0000    0.0000 C   0  0  0  0  0  0  0  0  0  0  0  0
   -3.8817   -1.2135    0.0000 N   0  0  0  0  0  0  0  0  0  0  0  0
   -5.3083   -0.7500    0.0000 N   0  0  0  0  0  0  0  0  0  0  0  0
   -5.3083    0.7500    0.0000 N   0  0  0  0  0  0  0  0  0  0  0  0
   -3.8817    1.2135    0.0000 N   0  0  0  0  0  0  0  0  0  0  0  0
   -3.4182    2.6401    0.0000 C   0  0  0  0  0  0  0  0  0  0  0  0
   -4.2998    3.8536    0.0000 C   0  0  0  0  0  0  0  0  0  0  0  0
   -3.4182    5.0672    0.0000 C   0  0  0  0  0  0  0  0  0  0  0  0
   -1.9916    4.6036    0.0000 C   0  0  0  0  0  0  0  0  0  0  0  0
   -0.7780    5.4853    0.0000 C   0  0  0  0  0  0  0  0  0  0  0  0
    0.5923    4.8752    0.0000 O   0  0  0  0  0  0  0  0  0  0  0  0
   -0.9348    6.9771    0.0000 N   0  0  0  0  0  0  0  0  0  0  0  0
    0.2787    7.8588    0.0000 C   0  0  0  0  0  0  0  0  0  0  0  0
    1.7053    7.3952    0.0000 N   0  0  0  0  0  0  0  0  0  0  0  0
    2.5870    8.6088    0.0000 N   0  0  0  0  0  0  0  0  0  0  0  0
    1.7053    9.8223    0.0000 N   0  0  0  0  0  0  0  0  0  0  0  0
    0.2787    9.3588    0.0000 N   0  0  0  0  0  0  0  0  0  0  0  0
   -0.9348   10.2405    0.0000 C   0  0  0  0  0  0  0  0  0  0  0  0
   -2.3614    9.7769    0.0000 C   0  0  0  0  0  0  0  0  0  0  0  0
   -3.2431   10.9905    0.0000 C   0  0  0  0  0  0  0  0  0  0  0  0
   -2.3614   12.2040    0.0000 C   0  0  0  0  0  0  0  0  0  0  0  0
   -2.8249   13.6306    0.0000 N   0  0  0  0  0  0  0  0  0  0  0  0
   -4.2515   14.0941    0.0000 C   0  0  0  0  0  0  0  0  0  0  0  0
   -4.2515   15.5941    0.0000 C   0  0  0  0  0  0  0  0  0  0  0  0
   -2.8249   16.0576    0.0000 C   0  0  0  0  0  0  0  0  0  0  0  0
   -1.9433   14.8441    0.0000 C   0  0  0  0  0  0  0  0  0  0  0  0
   -0.9348   11.7405    0.0000 C   0  0  0  0  0  0  0  0  0  0  0  0
    0.2787   12.6221    0.0000 O   0  0  0  0  0  0  0  0  0  0  0  0
   -1.9916    3.1036    0.0000 C   0  0  0  0  0  0  0  0  0  0  0  0
   -0.7780    2.2220    0.0000 O   0  0  0  0  0  0  0  0  0  0  0  0
   -0.7500   -1.2990    0.0000 C   0  0  0  0  0  0  0  0  0  0  0  0
   -1.5000   -2.5981    0.0000 O   0  0  0  0  0  0  0  0  0  0  0  0
    0.7500   -1.2990    0.0000 N   0  0  0  0  0  0  0  0  0  0  0  0
  1  2  1  0
  2  3  2  0
  3  4  1  0
  4  5  2  0
  5  6  1  0
  6  7  2  0
  7  8  1  0
  8  9  2  0
  9 10  1  0
 10 11  1  0
 11 12  2  0
 12 13  1  0
 13 14  2  0
 14 15  1  0
 15 16  2  0
 15 17  1  0
 17 18  1  0
 18 19  2  0
 19 20  1  0
 20 21  2  0
 21 22  1  0
 22 23  1  0
 23 24  2  0
 24 25  1  0
 25 26  2  0
 26 27  1  0
 27 28  1  0
 28 29  2  0
 29 30  1  0
 30 31  2  0
 26 32  1  0
 32 33  2  0
 14 34  1  0
 34 35  2  0
  5 36  1  0
 36 37  2  0
 36 38  1  0
 38  2  1  0
 10  6  1  0
 34 11  1  0
 22 18  1  0
 32 23  1  0
 31 27  1  0
M  END
>  <Title>  (457) 
idAAROgen7

$$$$

     RDKit          2D

 25 27  0  0  0  0  0  0  0  0999 V2000
    3.7500   -1.2990    0.0000 C   0  0  0  0  0  0  0  0  0  0  0  0
    3.0000    0.0000    0.0000 O   0  0  0  0  0  0  0  0  0  0  0  0
    1.5000    0.0000    0.0000 C   0  0  0  0  0  0  0  0  0  0  0  0
    0.7500   -1.2990    0.0000 C   0  0  0  0  0  0  0  0  0  0  0  0
   -0.7500   -1.2990    0.0000 C   0  0  0  0  0  0  0  0  0  0  0  0
   -1.5000    0.0000    0.0000 C   0  0  0  0  0  0  0  0  0  0  0  0
   -3.0000    0.0000    0.0000 N   0  0  0  0  0  0  0  0  0  0  0  0
   -3.7500    1.2990    0.0000 C   0  0  0  0  0  0  0  0  0  0  0  0
   -3.0000    2.5981    0.0000 O   0  0  0  0  0  0  0  0  0  0  0  0
   -5.2500    1.2990    0.0000 N   0  0  0  0  0  0  0  0  0  0  0  0
   -6.1317    0.0855    0.0000 C   0  0  0  0  0  0  0  0  0  0  0  0
   -7.5583    0.5490    0.0000 C   0  0  0  0  0  0  0  0  0  0  0  0
   -7.5583    2.0490    0.0000 C   0  0  0  0  0  0  0  0  0  0  0  0
   -8.7718    2.9307    0.0000 C   0  0  0  0  0  0  0  0  0  0  0  0
  -10.1421    2.3206    0.0000 O   0  0  0  0  0  0  0  0  0  0  0  0
   -8.6150    4.4225    0.0000 N   0  0  0  0  0  0  0  0  0  0  0  0
   -9.8285    5.3042    0.0000 C   0  0  0  0  0  0  0  0  0  0  0  0
   -9.6717    6.7960    0.0000 C   0  0  0  0  0  0  0  0  0  0  0  0
  -10.8853    7.6776    0.0000 C   0  0  0  0  0  0  0  0  0  0  0  0
  -12.2556    7.0675    0.0000 C   0  0  0  0  0  0  0  0  0  0  0  0
  -12.4124    5.5757    0.0000 C   0  0  0  0  0  0  0  0  0  0  0  0
  -11.1988    4.6941    0.0000 C   0  0  0  0  0  0  0  0  0  0  0  0
   -6.1317    2.5126    0.0000 C   0  0  0  0  0  0  0  0  0  0  0  0
   -0.7500    1.2990    0.0000 C   0  0  0  0  0  0  0  0  0  0  0  0
    0.7500    1.2990    0.0000 C   0  0  0  0  0  0  0  0  0  0  0  0
  1  2  1  0
  2  3  1  0
  3  4  2  0
  4  5  1  0
  5  6  2  0
  6  7  1  0
  7  8  1  0
  8  9  2  0
  8 10  1  0
 10 11  1  0
 11 12  2  0
 12 13  1  0
 13 14  1  0
 14 15  2  0
 14 16  1  0
 16 17  1  0
 17 18  2  0
 18 19  1  0
 19 20  2  0
 20 21  1  0
 21 22  2  0
 13 23  2  0
  6 24  1  0
 24 25  1  0
 25  3  1  0
 23 10  1  0
 22 17  1  0
M  END
>  <Title>  (458) 
idAARPgen7

$$$$

     RDKit          2D

 30 32  0  0  0  0  0  0  0  0999 V2000
    6.0000   -2.5981    0.0000 C   0  0  0  0  0  0  0  0  0  0  0  0
    5.2500   -1.2990    0.0000 C   0  0  0  0  0  0  0  0  0  0  0  0
    6.0000    0.0000    0.0000 O   0  0  0  0  0  0  0  0  0  0  0  0
    3.7500   -1.2990    0.0000 N   0  0  0  0  0  0  0  0  0  0  0  0
    3.0000    0.0000    0.0000 C   0  0  0  0  0  0  0  0  0  0  0  0
    3.7500    1.2990    0.0000 O   0  0  0  0  0  0  0  0  0  0  0  0
    1.5000    0.0000    0.0000 C   0  0  0  0  0  0  0  0  0  0  0  0
    0.7500   -1.2990    0.0000 C   0  0  0  0  0  0  0  0  0  0  0  0
   -0.7500   -1.2990    0.0000 C   0  0  0  0  0  0  0  0  0  0  0  0
   -1.5000    0.0000    0.0000 C   0  0  0  0  0  0  0  0  0  0  0  0
   -3.0000    0.0000    0.0000 C   0  0  0  0  0  0  0  0  0  0  0  0
   -3.7500   -1.2990    0.0000 O   0  0  0  0  0  0  0  0  0  0  0  0
   -3.7500    1.2990    0.0000 N   0  0  0  0  0  0  0  0  0  0  0  0
   -5.2500    1.2990    0.0000 C   0  0  0  0  0  0  0  0  0  0  0  0
   -6.1317    0.0855    0.0000 N   0  0  0  0  0  0  0  0  0  0  0  0
   -7.5583    0.5490    0.0000 N   0  0  0  0  0  0  0  0  0  0  0  0
   -7.5583    2.0490    0.0000 N   0  0  0  0  0  0  0  0  0  0  0  0
   -6.1317    2.5126    0.0000 N   0  0  0  0  0  0  0  0  0  0  0  0
   -5.6682    3.9391    0.0000 C   0  0  0  0  0  0  0  0  0  0  0  0
   -4.2009    4.2510    0.0000 C   0  0  0  0  0  0  0  0  0  0  0  0
   -3.7374    5.6776    0.0000 C   0  0  0  0  0  0  0  0  0  0  0  0
   -4.7411    6.7923    0.0000 C   0  0  0  0  0  0  0  0  0  0  0  0
   -4.2776    8.2189    0.0000 C   0  0  0  0  0  0  0  0  0  0  0  0
   -5.2813    9.3336    0.0000 O   0  0  0  0  0  0  0  0  0  0  0  0
   -2.8104    8.5308    0.0000 N   0  0  0  0  0  0  0  0  0  0  0  0
   -2.3468    9.9574    0.0000 O   0  0  0  0  0  0  0  0  0  0  0  0
   -6.2083    6.4805    0.0000 C   0  0  0  0  0  0  0  0  0  0  0  0
   -6.6718    5.0539    0.0000 C   0  0  0  0  0  0  0  0  0  0  0  0
   -0.7500    1.2990    0.0000 C   0  0  0  0  0  0  0  0  0  0  0  0
    0.7500    1.2990    0.0000 N   0  0  0  0  0  0  0  0  0  0  0  0
  1  2  1  0
  2  3  2  0
  2  4  1  0
  4  5  1  0
  5  6  2  0
  5  7  1  0
  7  8  1  0
  8  9  1  0
  9 10  2  0
 10 11  1  0
 11 12  2  0
 11 13  1  0
 13 14  1  0
 14 15  2  0
 15 16  1  0
 16 17  2  0
 17 18  1  0
 18 19  1  0
 19 20  2  0
 20 21  1  0
 21 22  2  0
 22 23  1  0
 23 24  2  0
 23 25  1  0
 25 26  1  0
 22 27  1  0
 27 28  1  0
 10 29  1  0
 29 30  1  0
 30  7  1  0
 18 14  1  0
 28 19  1  0
M  END
>  <Title>  (459) 
idAARQgen7

$$$$

     RDKit          2D

 31 35  0  0  0  0  0  0  0  0999 V2000
   -3.6975    4.4273    0.0000 C   0  0  0  0  0  0  0  0  0  0  0  0
   -2.3272    3.8172    0.0000 C   0  0  0  0  0  0  0  0  0  0  0  0
   -2.0153    2.3500    0.0000 C   0  0  0  0  0  0  0  0  0  0  0  0
   -0.5235    2.1932    0.0000 C   0  0  0  0  0  0  0  0  0  0  0  0
    0.0866    3.5635    0.0000 C   0  0  0  0  0  0  0  0  0  0  0  0
    1.5538    3.8754    0.0000 C   0  0  0  0  0  0  0  0  0  0  0  0
    2.0173    5.3020    0.0000 O   0  0  0  0  0  0  0  0  0  0  0  0
    2.5575    2.7607    0.0000 N   0  0  0  0  0  0  0  0  0  0  0  0
    4.0247    3.0725    0.0000 C   0  0  0  0  0  0  0  0  0  0  0  0
    4.6348    4.4429    0.0000 N   0  0  0  0  0  0  0  0  0  0  0  0
    6.1266    4.2861    0.0000 N   0  0  0  0  0  0  0  0  0  0  0  0
    6.4385    2.8189    0.0000 N   0  0  0  0  0  0  0  0  0  0  0  0
    5.1394    2.0689    0.0000 N   0  0  0  0  0  0  0  0  0  0  0  0
    4.9826    0.5771    0.0000 C   0  0  0  0  0  0  0  0  0  0  0  0
    6.0974   -0.4266    0.0000 C   0  0  0  0  0  0  0  0  0  0  0  0
    5.4873   -1.7969    0.0000 C   0  0  0  0  0  0  0  0  0  0  0  0
    3.9955   -1.6402    0.0000 C   0  0  0  0  0  0  0  0  0  0  0  0
    2.9918   -2.7549    0.0000 C   0  0  0  0  0  0  0  0  0  0  0  0
    3.3037   -4.2221    0.0000 N   0  0  0  0  0  0  0  0  0  0  0  0
    2.0046   -4.9721    0.0000 N   0  0  0  0  0  0  0  0  0  0  0  0
    0.8899   -3.9684    0.0000 N   0  0  0  0  0  0  0  0  0  0  0  0
    1.5000   -2.5981    0.0000 N   0  0  0  0  0  0  0  0  0  0  0  0
    0.7500   -1.2990    0.0000 C   0  0  0  0  0  0  0  0  0  0  0  0
    1.5000    0.0000    0.0000 C   0  0  0  0  0  0  0  0  0  0  0  0
    0.7500    1.2990    0.0000 C   0  0  0  0  0  0  0  0  0  0  0  0
   -0.7500    1.2990    0.0000 C   0  0  0  0  0  0  0  0  0  0  0  0
   -1.5000    0.0000    0.0000 C   0  0  0  0  0  0  0  0  0  0  0  0
   -0.7500   -1.2990    0.0000 C   0  0  0  0  0  0  0  0  0  0  0  0
    3.6836   -0.1729    0.0000 C   0  0  0  0  0  0  0  0  0  0  0  0
    2.3133    0.4372    0.0000 O   0  0  0  0  0  0  0  0  0  0  0  0
   -1.0281    4.5672    0.0000 C   0  0  0  0  0  0  0  0  0  0  0  0
  1  2  1  0
  2  3  2  0
  3  4  1  0
  4  5  2  0
  5  6  1  0
  6  7  2  0
  6  8  1  0
  8  9  1  0
  9 10  2  0
 10 11  1  0
 11 12  2  0
 12 13  1  0
 13 14  1  0
 14 15  2  0
 15 16  1  0
 16 17  2  0
 17 18  1  0
 18 19  2  0
 19 20  1  0
 20 21  2  0
 21 22  1  0
 22 23  1  0
 23 24  2  0
 24 25  1  0
 25 26  2  0
 26 27  1  0
 27 28  2  0
 17 29  1  0
 29 30  2  0
  5 31  1  0
 31  2  1  0
 13  9  1  0
 29 14  1  0
 22 18  1  0
 28 23  1  0
M  END
>  <Title>  (460) 
idAARRgen7

$$$$

     RDKit          2D

 14 14  0  0  0  0  0  0  0  0999 V2000
    3.2286   -5.1962    0.0000 C   0  0  0  0  0  0  0  0  0  0  0  0
    3.9786   -3.8971    0.0000 C   0  0  0  0  0  0  0  0  0  0  0  0
    5.4786   -3.8971    0.0000 C   0  0  0  0  0  0  0  0  0  0  0  0
    3.2286   -2.5981    0.0000 C   0  0  0  0  0  0  0  0  0  0  0  0
    3.9786   -1.2990    0.0000 C   0  0  0  0  0  0  0  0  0  0  0  0
    5.4786   -1.2990    0.0000 C   0  0  0  0  0  0  0  0  0  0  0  0
    3.2286   -0.0000    0.0000 C   0  0  0  0  0  0  0  0  0  0  0  0
    1.7286    0.0000    0.0000 C   0  0  0  0  0  0  0  0  0  0  0  0
    1.0777    1.3515    0.0000 C   0  0  0  0  0  0  0  0  0  0  0  0
   -0.3846    1.6852    0.0000 C   0  0  0  0  0  0  0  0  0  0  0  0
   -1.5574    0.7500    0.0000 C   0  0  0  0  0  0  0  0  0  0  0  0
   -1.5574   -0.7500    0.0000 C   0  0  0  0  0  0  0  0  0  0  0  0
   -0.3846   -1.6852    0.0000 C   0  0  0  0  0  0  0  0  0  0  0  0
    1.0777   -1.3515    0.0000 C   0  0  0  0  0  0  0  0  0  0  0  0
  1  2  1  0
  2  3  1  0
  2  4  1  0
  4  5  1  0
  5  6  1  0
  5  7  1  0
  7  8  1  0
  8  9  1  0
  9 10  1  0
 10 11  1  0
 11 12  1  0
 12 13  1  0
 13 14  1  0
 14  8  1  0
M  END
>  <Title>  (461) 
idAARSgen7

$$$$

     RDKit          2D

 39 44  0  0  0  0  0  0  0  0999 V2000
  -10.1624    4.2767    0.0000 C   0  0  0  0  0  0  0  0  0  0  0  0
   -8.9488    3.3950    0.0000 C   0  0  0  0  0  0  0  0  0  0  0  0
   -9.1056    1.9033    0.0000 C   0  0  0  0  0  0  0  0  0  0  0  0
   -7.8921    1.0216    0.0000 C   0  0  0  0  0  0  0  0  0  0  0  0
   -6.5218    1.6317    0.0000 C   0  0  0  0  0  0  0  0  0  0  0  0
   -5.3083    0.7500    0.0000 C   0  0  0  0  0  0  0  0  0  0  0  0
   -5.3083   -0.7500    0.0000 N   0  0  0  0  0  0  0  0  0  0  0  0
   -3.8817   -1.2135    0.0000 N   0  0  0  0  0  0  0  0  0  0  0  0
   -3.0000    0.0000    0.0000 N   0  0  0  0  0  0  0  0  0  0  0  0
   -3.8817    1.2135    0.0000 N   0  0  0  0  0  0  0  0  0  0  0  0
   -3.4182    2.6401    0.0000 C   0  0  0  0  0  0  0  0  0  0  0  0
   -4.4218    3.7548    0.0000 C   0  0  0  0  0  0  0  0  0  0  0  0
   -3.9583    5.1814    0.0000 C   0  0  0  0  0  0  0  0  0  0  0  0
   -2.4911    5.4933    0.0000 C   0  0  0  0  0  0  0  0  0  0  0  0
   -2.0276    6.9199    0.0000 C   0  0  0  0  0  0  0  0  0  0  0  0
   -0.5604    7.2317    0.0000 C   0  0  0  0  0  0  0  0  0  0  0  0
   -0.0968    8.6583    0.0000 C   0  0  0  0  0  0  0  0  0  0  0  0
   -1.1005    9.7730    0.0000 C   0  0  0  0  0  0  0  0  0  0  0  0
   -0.6370   11.1996    0.0000 C   0  0  0  0  0  0  0  0  0  0  0  0
   -1.6407   12.3143    0.0000 O   0  0  0  0  0  0  0  0  0  0  0  0
    0.8302   11.5115    0.0000 N   0  0  0  0  0  0  0  0  0  0  0  0
    1.2937   12.9381    0.0000 C   0  0  0  0  0  0  0  0  0  0  0  0
    2.7610   13.2499    0.0000 C   0  0  0  0  0  0  0  0  0  0  0  0
    3.2245   14.6765    0.0000 C   0  0  0  0  0  0  0  0  0  0  0  0
    2.2208   15.7912    0.0000 C   0  0  0  0  0  0  0  0  0  0  0  0
    0.7536   15.4794    0.0000 C   0  0  0  0  0  0  0  0  0  0  0  0
    0.2901   14.0528    0.0000 C   0  0  0  0  0  0  0  0  0  0  0  0
   -2.5677    9.4612    0.0000 C   0  0  0  0  0  0  0  0  0  0  0  0
   -3.0313    8.0346    0.0000 C   0  0  0  0  0  0  0  0  0  0  0  0
   -4.4985    7.7227    0.0000 N   0  0  0  0  0  0  0  0  0  0  0  0
   -5.1086    6.3524    0.0000 N   0  0  0  0  0  0  0  0  0  0  0  0
   -6.6004    6.5092    0.0000 N   0  0  0  0  0  0  0  0  0  0  0  0
   -6.9122    7.9764    0.0000 N   0  0  0  0  0  0  0  0  0  0  0  0
   -5.6132    8.7264    0.0000 N   0  0  0  0  0  0  0  0  0  0  0  0
   -1.4874    4.3786    0.0000 C   0  0  0  0  0  0  0  0  0  0  0  0
   -0.0202    4.6904    0.0000 O   0  0  0  0  0  0  0  0  0  0  0  0
   -1.9509    2.9520    0.0000 N   0  0  0  0  0  0  0  0  0  0  0  0
   -6.3650    3.1235    0.0000 N   0  0  0  0  0  0  0  0  0  0  0  0
   -7.5785    4.0051    0.0000 C   0  0  0  0  0  0  0  0  0  0  0  0
  1  2  1  0
  2  3  2  0
  3  4  1  0
  4  5  2  0
  5  6  1  0
  6  7  2  0
  7  8  1  0
  8  9  2  0
  9 10  1  0
 10 11  1  0
 11 12  2  0
 12 13  1  0
 13 14  2  0
 14 15  1  0
 15 16  2  0
 16 17  1  0
 17 18  2  0
 18 19  1  0
 19 20  2  0
 19 21  1  0
 21 22  1  0
 22 23  2  0
 23 24  1  0
 24 25  2  0
 25 26  1  0
 26 27  2  0
 18 28  1  0
 28 29  2  0
 29 30  1  0
 30 31  1  0
 31 32  2  0
 32 33  1  0
 33 34  2  0
 14 35  1  0
 35 36  2  0
 35 37  1  0
  5 38  1  0
 38 39  1  0
 39  2  1  0
 10  6  1  0
 37 11  1  0
 29 15  1  0
 34 30  1  0
 27 22  1  0
M  END
>  <Title>  (462) 
idAARTgen7

$$$$

     RDKit          2D

 28 31  0  0  0  0  0  0  0  0999 V2000
    3.0000    0.0000    0.0000 C   0  0  0  0  0  0  0  0  0  0  0  0
    1.5000    0.0000    0.0000 C   0  0  0  0  0  0  0  0  0  0  0  0
    0.7500   -1.2990    0.0000 C   0  0  0  0  0  0  0  0  0  0  0  0
   -0.7500   -1.2990    0.0000 C   0  0  0  0  0  0  0  0  0  0  0  0
   -1.5000    0.0000    0.0000 C   0  0  0  0  0  0  0  0  0  0  0  0
   -3.0000    0.0000    0.0000 C   0  0  0  0  0  0  0  0  0  0  0  0
   -3.7500   -1.2990    0.0000 O   0  0  0  0  0  0  0  0  0  0  0  0
   -3.7500    1.2990    0.0000 N   0  0  0  0  0  0  0  0  0  0  0  0
   -5.2500    1.2990    0.0000 C   0  0  0  0  0  0  0  0  0  0  0  0
   -6.1317    0.0855    0.0000 N   0  0  0  0  0  0  0  0  0  0  0  0
   -7.5583    0.5490    0.0000 N   0  0  0  0  0  0  0  0  0  0  0  0
   -7.5583    2.0490    0.0000 N   0  0  0  0  0  0  0  0  0  0  0  0
   -6.1317    2.5126    0.0000 N   0  0  0  0  0  0  0  0  0  0  0  0
   -5.6682    3.9391    0.0000 C   0  0  0  0  0  0  0  0  0  0  0  0
   -4.2009    4.2510    0.0000 C   0  0  0  0  0  0  0  0  0  0  0  0
   -3.7374    5.6776    0.0000 C   0  0  0  0  0  0  0  0  0  0  0  0
   -4.7411    6.7923    0.0000 C   0  0  0  0  0  0  0  0  0  0  0  0
   -4.2776    8.2189    0.0000 C   0  0  0  0  0  0  0  0  0  0  0  0
   -2.8104    8.5308    0.0000 C   0  0  0  0  0  0  0  0  0  0  0  0
   -2.3468    9.9574    0.0000 C   0  0  0  0  0  0  0  0  0  0  0  0
   -3.3505   11.0721    0.0000 C   0  0  0  0  0  0  0  0  0  0  0  0
   -4.8177   10.7602    0.0000 C   0  0  0  0  0  0  0  0  0  0  0  0
   -5.2813    9.3336    0.0000 C   0  0  0  0  0  0  0  0  0  0  0  0
   -6.2083    6.4805    0.0000 C   0  0  0  0  0  0  0  0  0  0  0  0
   -6.6718    5.0539    0.0000 C   0  0  0  0  0  0  0  0  0  0  0  0
   -0.7500    1.2990    0.0000 C   0  0  0  0  0  0  0  0  0  0  0  0
   -1.5000    2.5981    0.0000 O   0  0  0  0  0  0  0  0  0  0  0  0
    0.7500    1.2990    0.0000 N   0  0  0  0  0  0  0  0  0  0  0  0
  1  2  1  0
  2  3  2  0
  3  4  1  0
  4  5  2  0
  5  6  1  0
  6  7  2  0
  6  8  1  0
  8  9  1  0
  9 10  2  0
 10 11  1  0
 11 12  2  0
 12 13  1  0
 13 14  1  0
 14 15  2  0
 15 16  1  0
 16 17  2  0
 17 18  1  0
 18 19  2  0
 19 20  1  0
 20 21  2  0
 21 22  1  0
 22 23  2  0
 17 24  1  0
 24 25  1  0
  5 26  1  0
 26 27  2  0
 26 28  1  0
 28  2  1  0
 13  9  1  0
 25 14  1  0
 23 18  1  0
M  END
>  <Title>  (463) 
idAARUgen7

$$$$

     RDKit          2D

 45 50  0  0  0  0  0  0  0  0999 V2000
    3.0000    0.0000    0.0000 C   0  0  0  0  0  0  0  0  0  0  0  0
    1.5000    0.0000    0.0000 C   0  0  0  0  0  0  0  0  0  0  0  0
    0.7500   -1.2990    0.0000 C   0  0  0  0  0  0  0  0  0  0  0  0
   -0.7500   -1.2990    0.0000 C   0  0  0  0  0  0  0  0  0  0  0  0
   -1.5000    0.0000    0.0000 C   0  0  0  0  0  0  0  0  0  0  0  0
   -0.7500    1.2990    0.0000 C   0  0  0  0  0  0  0  0  0  0  0  0
    0.7500    1.2990    0.0000 C   0  0  0  0  0  0  0  0  0  0  0  0
   -0.9068    2.7908    0.0000 C   0  0  0  0  0  0  0  0  0  0  0  0
    0.4635    3.4009    0.0000 O   0  0  0  0  0  0  0  0  0  0  0  0
   -1.9105    3.9055    0.0000 N   0  0  0  0  0  0  0  0  0  0  0  0
   -3.3777    4.2174    0.0000 C   0  0  0  0  0  0  0  0  0  0  0  0
   -3.5345    5.7092    0.0000 O   0  0  0  0  0  0  0  0  0  0  0  0
   -4.7480    3.6073    0.0000 C   0  0  0  0  0  0  0  0  0  0  0  0
   -5.4980    2.3083    0.0000 N   0  0  0  0  0  0  0  0  0  0  0  0
   -5.3412    0.8165    0.0000 N   0  0  0  0  0  0  0  0  0  0  0  0
   -4.3375   -0.2982    0.0000 N   0  0  0  0  0  0  0  0  0  0  0  0
   -2.8703   -0.6101    0.0000 N   0  0  0  0  0  0  0  0  0  0  0  0
   -4.2406   -1.2202    0.0000 C   0  0  0  0  0  0  0  0  0  0  0  0
   -5.7079   -0.9083    0.0000 C   0  0  0  0  0  0  0  0  0  0  0  0
   -6.7116    0.2064    0.0000 C   0  0  0  0  0  0  0  0  0  0  0  0
   -6.8683    1.6982    0.0000 C   0  0  0  0  0  0  0  0  0  0  0  0
   -8.3356    2.0100    0.0000 C   0  0  0  0  0  0  0  0  0  0  0  0
   -9.3393    0.8953    0.0000 O   0  0  0  0  0  0  0  0  0  0  0  0
   -8.7991    3.4366    0.0000 N   0  0  0  0  0  0  0  0  0  0  0  0
  -10.2663    3.7485    0.0000 C   0  0  0  0  0  0  0  0  0  0  0  0
  -11.3810    2.7448    0.0000 N   0  0  0  0  0  0  0  0  0  0  0  0
  -12.6801    3.4948    0.0000 N   0  0  0  0  0  0  0  0  0  0  0  0
  -12.3682    4.9620    0.0000 N   0  0  0  0  0  0  0  0  0  0  0  0
  -10.8764    5.1188    0.0000 N   0  0  0  0  0  0  0  0  0  0  0  0
  -10.1264    6.4178    0.0000 C   0  0  0  0  0  0  0  0  0  0  0  0
  -10.7365    7.7882    0.0000 C   0  0  0  0  0  0  0  0  0  0  0  0
   -9.6218    8.7918    0.0000 C   0  0  0  0  0  0  0  0  0  0  0  0
   -8.3228    8.0418    0.0000 C   0  0  0  0  0  0  0  0  0  0  0  0
   -6.9525    8.6520    0.0000 C   0  0  0  0  0  0  0  0  0  0  0  0
   -6.7957   10.1437    0.0000 O   0  0  0  0  0  0  0  0  0  0  0  0
   -5.7389    7.7703    0.0000 N   0  0  0  0  0  0  0  0  0  0  0  0
   -4.3686    8.3804    0.0000 O   0  0  0  0  0  0  0  0  0  0  0  0
   -8.6346    6.5746    0.0000 C   0  0  0  0  0  0  0  0  0  0  0  0
   -7.6309    5.4599    0.0000 O   0  0  0  0  0  0  0  0  0  0  0  0
   -6.1183    2.9972    0.0000 C   0  0  0  0  0  0  0  0  0  0  0  0
   -4.6511    2.6853    0.0000 C   0  0  0  0  0  0  0  0  0  0  0  0
   -3.8071    3.5593    0.0000 C   0  0  0  0  0  0  0  0  0  0  0  0
   -3.6474    1.5706    0.0000 C   0  0  0  0  0  0  0  0  0  0  0  0
   -2.2771    2.1807    0.0000 O   0  0  0  0  0  0  0  0  0  0  0  0
   -3.4906    0.0788    0.0000 N   0  0  0  0  0  0  0  0  0  0  0  0
  1  2  1  0
  2  3  2  0
  3  4  1  0
  4  5  2  0
  5  6  1  0
  6  7  2  0
  6  8  1  0
  8  9  2  0
  8 10  1  0
 10 11  1  0
 11 12  2  0
 11 13  1  0
 13 14  2  0
 14 15  1  0
 15 16  2  0
 16 17  1  0
 17 18  1  0
 18 19  2  0
 19 20  1  0
 20 21  2  0
 21 22  1  0
 22 23  2  0
 22 24  1  0
 24 25  1  0
 25 26  2  0
 26 27  1  0
 27 28  2  0
 28 29  1  0
 29 30  1  0
 30 31  2  0
 31 32  1  0
 32 33  2  0
 33 34  1  0
 34 35  2  0
 34 36  1  0
 36 37  1  0
 33 38  1  0
 38 39  2  0
 21 40  1  0
 40 41  2  0
 41 42  1  0
 41 43  1  0
 43 44  2  0
 43 45  1  0
  7  2  1  0
 40 13  1  0
 17  5  1  0
 45 18  1  0
 29 25  1  0
 38 30  1  0
M  END
>  <Title>  (464) 
idAARVgen7

$$$$

     RDKit          2D

 11 11  0  0  0  0  0  0  0  0999 V2000
    3.9271    0.0000    0.0000 O   0  0  0  0  0  0  0  0  0  0  0  0
    2.4271    0.0000    0.0000 C   0  0  0  0  0  0  0  0  0  0  0  0
    1.9635   -1.4266    0.0000 C   0  0  0  0  0  0  0  0  0  0  0  0
    0.7500   -2.3083    0.0000 C   0  0  0  0  0  0  0  0  0  0  0  0
   -0.7500   -2.3083    0.0000 C   0  0  0  0  0  0  0  0  0  0  0  0
   -1.9635   -1.4266    0.0000 C   0  0  0  0  0  0  0  0  0  0  0  0
   -2.4271    0.0000    0.0000 C   0  0  0  0  0  0  0  0  0  0  0  0
   -1.9635    1.4266    0.0000 C   0  0  0  0  0  0  0  0  0  0  0  0
   -0.7500    2.3083    0.0000 C   0  0  0  0  0  0  0  0  0  0  0  0
    0.7500    2.3083    0.0000 C   0  0  0  0  0  0  0  0  0  0  0  0
    1.9635    1.4266    0.0000 C   0  0  0  0  0  0  0  0  0  0  0  0
  1  2  1  0
  2  3  2  0
  3  4  1  0
  4  5  2  0
  5  6  1  0
  6  7  1  0
  7  8  1  0
  8  9  1  0
  9 10  1  0
 10 11  1  0
 11  2  1  0
M  END
>  <Title>  (465) 
idAARWgen7

$$$$

     RDKit          2D

 40 45  0  0  0  0  0  0  0  0999 V2000
   -3.8137   -6.9743    0.0000 C   0  0  0  0  0  0  0  0  0  0  0  0
   -2.5792   -6.1222    0.0000 C   0  0  0  0  0  0  0  0  0  0  0  0
   -1.4564   -7.1169    0.0000 C   0  0  0  0  0  0  0  0  0  0  0  0
   -0.0000   -7.4758    0.0000 C   0  0  0  0  0  0  0  0  0  0  0  0
    1.4564   -7.1169    0.0000 C   0  0  0  0  0  0  0  0  0  0  0  0
    2.0555   -8.4921    0.0000 C   0  0  0  0  0  0  0  0  0  0  0  0
    3.5485   -8.3473    0.0000 C   0  0  0  0  0  0  0  0  0  0  0  0
    3.8721   -6.8826    0.0000 C   0  0  0  0  0  0  0  0  0  0  0  0
    2.5792   -6.1222    0.0000 C   0  0  0  0  0  0  0  0  0  0  0  0
    3.1111   -4.7197    0.0000 N   0  0  0  0  0  0  0  0  0  0  0  0
    2.9303   -3.2306    0.0000 C   0  0  0  0  0  0  0  0  0  0  0  0
    4.3328   -2.6987    0.0000 O   0  0  0  0  0  0  0  0  0  0  0  0
    2.0782   -1.9961    0.0000 N   0  0  0  0  0  0  0  0  0  0  0  0
    0.7500   -1.2990    0.0000 C   0  0  0  0  0  0  0  0  0  0  0  0
    1.5000    0.0000    0.0000 C   0  0  0  0  0  0  0  0  0  0  0  0
    0.7500    1.2990    0.0000 C   0  0  0  0  0  0  0  0  0  0  0  0
   -0.7500    1.2990    0.0000 C   0  0  0  0  0  0  0  0  0  0  0  0
   -1.5000    0.0000    0.0000 C   0  0  0  0  0  0  0  0  0  0  0  0
   -0.7500   -1.2990    0.0000 C   0  0  0  0  0  0  0  0  0  0  0  0
   -2.0782   -1.9961    0.0000 C   0  0  0  0  0  0  0  0  0  0  0  0
   -2.7212   -0.6409    0.0000 C   0  0  0  0  0  0  0  0  0  0  0  0
   -4.2164   -0.5202    0.0000 C   0  0  0  0  0  0  0  0  0  0  0  0
   -5.0685   -1.7547    0.0000 C   0  0  0  0  0  0  0  0  0  0  0  0
   -6.5636   -1.6340    0.0000 C   0  0  0  0  0  0  0  0  0  0  0  0
   -7.4157   -2.8685    0.0000 O   0  0  0  0  0  0  0  0  0  0  0  0
   -7.2066   -0.2788    0.0000 N   0  0  0  0  0  0  0  0  0  0  0  0
   -8.7018   -0.1581    0.0000 C   0  0  0  0  0  0  0  0  0  0  0  0
   -9.6782   -1.2968    0.0000 N   0  0  0  0  0  0  0  0  0  0  0  0
  -11.0629   -0.7200    0.0000 N   0  0  0  0  0  0  0  0  0  0  0  0
  -10.9422    0.7752    0.0000 N   0  0  0  0  0  0  0  0  0  0  0  0
   -9.4829    1.1224    0.0000 N   0  0  0  0  0  0  0  0  0  0  0  0
   -8.9061    2.5070    0.0000 C   0  0  0  0  0  0  0  0  0  0  0  0
   -7.4186    2.6998    0.0000 C   0  0  0  0  0  0  0  0  0  0  0  0
   -6.8417    4.0845    0.0000 C   0  0  0  0  0  0  0  0  0  0  0  0
   -7.7525    5.2764    0.0000 C   0  0  0  0  0  0  0  0  0  0  0  0
   -9.2401    5.0836    0.0000 C   0  0  0  0  0  0  0  0  0  0  0  0
   -9.8169    3.6989    0.0000 C   0  0  0  0  0  0  0  0  0  0  0  0
   -4.4254   -3.1099    0.0000 C   0  0  0  0  0  0  0  0  0  0  0  0
   -2.9303   -3.2306    0.0000 C   0  0  0  0  0  0  0  0  0  0  0  0
   -3.1111   -4.7197    0.0000 C   0  0  0  0  0  0  0  0  0  0  0  0
  1  2  1  0
  2  3  2  0
  3  4  1  0
  4  5  2  0
  5  6  1  0
  6  7  2  0
  7  8  1  0
  8  9  2  0
  9 10  1  0
 10 11  1  0
 11 12  2  0
 11 13  1  0
 13 14  1  0
 14 15  2  0
 15 16  1  0
 16 17  2  0
 17 18  1  0
 18 19  2  0
 19 20  1  0
 20 21  2  0
 21 22  1  0
 22 23  2  0
 23 24  1  0
 24 25  2  0
 24 26  1  0
 26 27  1  0
 27 28  2  0
 28 29  1  0
 29 30  2  0
 30 31  1  0
 31 32  1  0
 32 33  2  0
 33 34  1  0
 34 35  2  0
 35 36  1  0
 36 37  2  0
 23 38  1  0
 38 39  2  0
 39 40  1  0
 40  2  1  0
  9  5  1  0
 19 14  1  0
 39 20  1  0
 31 27  1  0
 37 32  1  0
M  END
>  <Title>  (466) 
idAARXgen7

$$$$

     RDKit          2D

 36 39  0  0  0  0  0  0  0  0999 V2000
    5.6205   -1.2990    0.0000 C   0  0  0  0  0  0  0  0  0  0  0  0
    4.8705    0.0000    0.0000 O   0  0  0  0  0  0  0  0  0  0  0  0
    3.3705    0.0000    0.0000 C   0  0  0  0  0  0  0  0  0  0  0  0
    3.0367   -1.4624    0.0000 C   0  0  0  0  0  0  0  0  0  0  0  0
    2.1015   -2.6351    0.0000 C   0  0  0  0  0  0  0  0  0  0  0  0
    0.7500   -3.2860    0.0000 C   0  0  0  0  0  0  0  0  0  0  0  0
   -0.7500   -3.2860    0.0000 C   0  0  0  0  0  0  0  0  0  0  0  0
   -2.1015   -2.6351    0.0000 C   0  0  0  0  0  0  0  0  0  0  0  0
   -3.0367   -1.4624    0.0000 C   0  0  0  0  0  0  0  0  0  0  0  0
   -3.3705    0.0000    0.0000 C   0  0  0  0  0  0  0  0  0  0  0  0
   -3.0367    1.4624    0.0000 C   0  0  0  0  0  0  0  0  0  0  0  0
   -2.1015    2.6351    0.0000 C   0  0  0  0  0  0  0  0  0  0  0  0
   -0.7500    3.2860    0.0000 C   0  0  0  0  0  0  0  0  0  0  0  0
    0.7500    3.2860    0.0000 C   0  0  0  0  0  0  0  0  0  0  0  0
    1.0838    4.7484    0.0000 C   0  0  0  0  0  0  0  0  0  0  0  0
   -0.0158    5.7686    0.0000 O   0  0  0  0  0  0  0  0  0  0  0  0
    2.5171    5.1905    0.0000 N   0  0  0  0  0  0  0  0  0  0  0  0
    2.8509    6.6529    0.0000 C   0  0  0  0  0  0  0  0  0  0  0  0
    1.8640    7.7825    0.0000 N   0  0  0  0  0  0  0  0  0  0  0  0
    2.6334    9.0702    0.0000 N   0  0  0  0  0  0  0  0  0  0  0  0
    4.0958    8.7364    0.0000 N   0  0  0  0  0  0  0  0  0  0  0  0
    4.2302    7.2424    0.0000 N   0  0  0  0  0  0  0  0  0  0  0  0
    5.5179    6.4731    0.0000 C   0  0  0  0  0  0  0  0  0  0  0  0
    5.4954    4.9732    0.0000 C   0  0  0  0  0  0  0  0  0  0  0  0
    6.7831    4.2039    0.0000 C   0  0  0  0  0  0  0  0  0  0  0  0
    8.0932    4.9344    0.0000 C   0  0  0  0  0  0  0  0  0  0  0  0
    9.3809    4.1650    0.0000 C   0  0  0  0  0  0  0  0  0  0  0  0
    9.3585    2.6652    0.0000 C   0  0  0  0  0  0  0  0  0  0  0  0
   10.6461    1.8958    0.0000 C   0  0  0  0  0  0  0  0  0  0  0  0
   11.9563    2.6263    0.0000 C   0  0  0  0  0  0  0  0  0  0  0  0
   11.9787    4.1262    0.0000 C   0  0  0  0  0  0  0  0  0  0  0  0
   10.6910    4.8955    0.0000 C   0  0  0  0  0  0  0  0  0  0  0  0
    8.1157    6.4342    0.0000 C   0  0  0  0  0  0  0  0  0  0  0  0
    6.8280    7.2036    0.0000 C   0  0  0  0  0  0  0  0  0  0  0  0
    2.1015    2.6351    0.0000 C   0  0  0  0  0  0  0  0  0  0  0  0
    3.0367    1.4624    0.0000 C   0  0  0  0  0  0  0  0  0  0  0  0
  1  2  1  0
  2  3  1  0
  3  4  2  0
  4  5  1  0
  5  6  2  0
  6  7  1  0
  7  8  2  0
  8  9  1  0
  9 10  2  0
 10 11  1  0
 11 12  2  0
 12 13  1  0
 13 14  2  0
 14 15  1  0
 15 16  2  0
 15 17  1  0
 17 18  1  0
 18 19  2  0
 19 20  1  0
 20 21  2  0
 21 22  1  0
 22 23  1  0
 23 24  2  0
 24 25  1  0
 25 26  2  0
 26 27  1  0
 27 28  2  0
 28 29  1  0
 29 30  2  0
 30 31  1  0
 31 32  2  0
 26 33  1  0
 33 34  2  0
 14 35  1  0
 35 36  2  0
 36  3  1  0
 22 18  1  0
 34 23  1  0
 32 27  1  0
M  END
>  <Title>  (467) 
idAARYgen7

$$$$

     RDKit          2D

 49 56  0  0  0  0  0  0  0  0999 V2000
    3.0000    0.0000    0.0000 C   0  0  0  0  0  0  0  0  0  0  0  0
    1.5000    0.0000    0.0000 C   0  0  0  0  0  0  0  0  0  0  0  0
    0.7500   -1.2990    0.0000 C   0  0  0  0  0  0  0  0  0  0  0  0
   -0.7500   -1.2990    0.0000 C   0  0  0  0  0  0  0  0  0  0  0  0
   -1.5000    0.0000    0.0000 C   0  0  0  0  0  0  0  0  0  0  0  0
   -3.0000    0.0000    0.0000 C   0  0  0  0  0  0  0  0  0  0  0  0
   -3.7500   -1.2990    0.0000 O   0  0  0  0  0  0  0  0  0  0  0  0
   -3.7500    1.2990    0.0000 N   0  0  0  0  0  0  0  0  0  0  0  0
   -5.2500    1.2990    0.0000 C   0  0  0  0  0  0  0  0  0  0  0  0
   -6.1317    0.0855    0.0000 N   0  0  0  0  0  0  0  0  0  0  0  0
   -7.5583    0.5490    0.0000 N   0  0  0  0  0  0  0  0  0  0  0  0
   -7.5583    2.0490    0.0000 N   0  0  0  0  0  0  0  0  0  0  0  0
   -6.1317    2.5126    0.0000 N   0  0  0  0  0  0  0  0  0  0  0  0
   -5.6682    3.9391    0.0000 C   0  0  0  0  0  0  0  0  0  0  0  0
   -4.2009    4.2510    0.0000 C   0  0  0  0  0  0  0  0  0  0  0  0
   -3.7374    5.6776    0.0000 C   0  0  0  0  0  0  0  0  0  0  0  0
   -4.7411    6.7923    0.0000 C   0  0  0  0  0  0  0  0  0  0  0  0
   -4.2776    8.2189    0.0000 C   0  0  0  0  0  0  0  0  0  0  0  0
   -5.1593    9.4324    0.0000 N   0  0  0  0  0  0  0  0  0  0  0  0
   -4.2776   10.6460    0.0000 N   0  0  0  0  0  0  0  0  0  0  0  0
   -2.8510   10.1824    0.0000 N   0  0  0  0  0  0  0  0  0  0  0  0
   -2.8510    8.6824    0.0000 N   0  0  0  0  0  0  0  0  0  0  0  0
   -1.6375    7.8008    0.0000 C   0  0  0  0  0  0  0  0  0  0  0  0
   -1.7943    6.3090    0.0000 C   0  0  0  0  0  0  0  0  0  0  0  0
   -0.5807    5.4273    0.0000 C   0  0  0  0  0  0  0  0  0  0  0  0
    0.7896    6.0374    0.0000 C   0  0  0  0  0  0  0  0  0  0  0  0
    0.9464    7.5292    0.0000 C   0  0  0  0  0  0  0  0  0  0  0  0
   -0.2671    8.4109    0.0000 C   0  0  0  0  0  0  0  0  0  0  0  0
   -6.2083    6.4805    0.0000 C   0  0  0  0  0  0  0  0  0  0  0  0
   -6.6718    5.0539    0.0000 C   0  0  0  0  0  0  0  0  0  0  0  0
   -8.1391    4.7420    0.0000 C   0  0  0  0  0  0  0  0  0  0  0  0
   -9.1428    5.8567    0.0000 C   0  0  0  0  0  0  0  0  0  0  0  0
  -10.6100    5.5448    0.0000 C   0  0  0  0  0  0  0  0  0  0  0  0
  -11.0735    4.1183    0.0000 C   0  0  0  0  0  0  0  0  0  0  0  0
  -12.5407    3.8064    0.0000 C   0  0  0  0  0  0  0  0  0  0  0  0
  -13.1508    2.4361    0.0000 N   0  0  0  0  0  0  0  0  0  0  0  0
  -14.6426    2.5929    0.0000 N   0  0  0  0  0  0  0  0  0  0  0  0
  -14.9545    4.0601    0.0000 N   0  0  0  0  0  0  0  0  0  0  0  0
  -13.6555    4.8101    0.0000 N   0  0  0  0  0  0  0  0  0  0  0  0
  -13.4987    6.3019    0.0000 C   0  0  0  0  0  0  0  0  0  0  0  0
  -12.1283    6.9120    0.0000 C   0  0  0  0  0  0  0  0  0  0  0  0
  -11.9715    8.4038    0.0000 C   0  0  0  0  0  0  0  0  0  0  0  0
  -13.1851    9.2854    0.0000 C   0  0  0  0  0  0  0  0  0  0  0  0
  -14.5554    8.6753    0.0000 C   0  0  0  0  0  0  0  0  0  0  0  0
  -14.7122    7.1836    0.0000 C   0  0  0  0  0  0  0  0  0  0  0  0
  -10.0698    3.0035    0.0000 C   0  0  0  0  0  0  0  0  0  0  0  0
   -8.6026    3.3154    0.0000 C   0  0  0  0  0  0  0  0  0  0  0  0
   -0.7500    1.2990    0.0000 C   0  0  0  0  0  0  0  0  0  0  0  0
    0.7500    1.2990    0.0000 C   0  0  0  0  0  0  0  0  0  0  0  0
  1  2  1  0
  2  3  2  0
  3  4  1  0
  4  5  2  0
  5  6  1  0
  6  7  2  0
  6  8  1  0
  8  9  1  0
  9 10  2  0
 10 11  1  0
 11 12  2  0
 12 13  1  0
 13 14  1  0
 14 15  2  0
 15 16  1  0
 16 17  2  0
 17 18  1  0
 18 19  2  0
 19 20  1  0
 20 21  2  0
 21 22  1  0
 22 23  1  0
 23 24  2  0
 24 25  1  0
 25 26  2  0
 26 27  1  0
 27 28  2  0
 17 29  1  0
 29 30  2  0
 30 31  1  0
 31 32  2  0
 32 33  1  0
 33 34  2  0
 34 35  1  0
 35 36  2  0
 36 37  1  0
 37 38  2  0
 38 39  1  0
 39 40  1  0
 40 41  2  0
 41 42  1  0
 42 43  2  0
 43 44  1  0
 44 45  2  0
 34 46  1  0
 46 47  2  0
  5 48  1  0
 48 49  2  0
 49  2  1  0
 13  9  1  0
 30 14  1  0
 47 31  1  0
 22 18  1  0
 28 23  1  0
 39 35  1  0
 45 40  1  0
M  END
>  <Title>  (468) 
idAARZgen7

$$$$

     RDKit          2D

 25 26  0  0  0  0  0  0  0  0999 V2000
    3.9271   -5.1962    0.0000 C   0  0  0  0  0  0  0  0  0  0  0  0
    4.6771   -3.8971    0.0000 C   0  0  0  0  0  0  0  0  0  0  0  0
    6.1771   -3.8971    0.0000 C   0  0  0  0  0  0  0  0  0  0  0  0
    3.9271   -2.5981    0.0000 C   0  0  0  0  0  0  0  0  0  0  0  0
    4.6771   -1.2990    0.0000 C   0  0  0  0  0  0  0  0  0  0  0  0
    6.1771   -1.2990    0.0000 C   0  0  0  0  0  0  0  0  0  0  0  0
    3.9271    0.0000    0.0000 C   0  0  0  0  0  0  0  0  0  0  0  0
    2.4271    0.0000    0.0000 C   0  0  0  0  0  0  0  0  0  0  0  0
    1.9635   -1.4266    0.0000 C   0  0  0  0  0  0  0  0  0  0  0  0
    0.7500   -2.3083    0.0000 C   0  0  0  0  0  0  0  0  0  0  0  0
   -0.7500   -2.3083    0.0000 C   0  0  0  0  0  0  0  0  0  0  0  0
   -1.9635   -1.4266    0.0000 C   0  0  0  0  0  0  0  0  0  0  0  0
   -2.4271    0.0000    0.0000 C   0  0  0  0  0  0  0  0  0  0  0  0
   -1.9635    1.4266    0.0000 C   0  0  0  0  0  0  0  0  0  0  0  0
   -0.7500    2.3083    0.0000 C   0  0  0  0  0  0  0  0  0  0  0  0
    0.7500    2.3083    0.0000 C   0  0  0  0  0  0  0  0  0  0  0  0
    1.2135    3.7348    0.0000 C   0  0  0  0  0  0  0  0  0  0  0  0
    2.6807    4.0467    0.0000 C   0  0  0  0  0  0  0  0  0  0  0  0
    3.6844    2.9320    0.0000 C   0  0  0  0  0  0  0  0  0  0  0  0
    5.1517    3.2439    0.0000 C   0  0  0  0  0  0  0  0  0  0  0  0
    5.6152    4.6705    0.0000 C   0  0  0  0  0  0  0  0  0  0  0  0
    4.6115    5.7852    0.0000 C   0  0  0  0  0  0  0  0  0  0  0  0
    3.1443    5.4733    0.0000 C   0  0  0  0  0  0  0  0  0  0  0  0
    2.1406    6.5880    0.0000 O   0  0  0  0  0  0  0  0  0  0  0  0
    1.9635    1.4266    0.0000 C   0  0  0  0  0  0  0  0  0  0  0  0
  1  2  1  0
  2  3  1  0
  2  4  1  0
  4  5  1  0
  5  6  1  0
  5  7  1  0
  7  8  1  0
  8  9  1  0
  9 10  2  0
 10 11  1  0
 11 12  2  0
 12 13  1  0
 13 14  2  0
 14 15  1  0
 15 16  2  0
 16 17  1  0
 17 18  1  0
 18 19  2  0
 19 20  1  0
 20 21  2  0
 21 22  1  0
 22 23  2  0
 23 24  1  0
 16 25  1  0
 25  8  1  0
 23 18  1  0
M  END
>  <Title>  (469) 
idAASAgen7

$$$$

     RDKit          2D

 48 55  0  0  0  0  0  0  0  0999 V2000
    3.0000    0.0000    0.0000 C   0  0  0  0  0  0  0  0  0  0  0  0
    1.5000    0.0000    0.0000 C   0  0  0  0  0  0  0  0  0  0  0  0
    0.7500    1.2990    0.0000 C   0  0  0  0  0  0  0  0  0  0  0  0
   -0.7500    1.2990    0.0000 C   0  0  0  0  0  0  0  0  0  0  0  0
   -1.5000    0.0000    0.0000 C   0  0  0  0  0  0  0  0  0  0  0  0
   -3.0000    0.0000    0.0000 C   0  0  0  0  0  0  0  0  0  0  0  0
   -3.8817   -1.2135    0.0000 N   0  0  0  0  0  0  0  0  0  0  0  0
   -5.3083   -0.7500    0.0000 N   0  0  0  0  0  0  0  0  0  0  0  0
   -5.3083    0.7500    0.0000 N   0  0  0  0  0  0  0  0  0  0  0  0
   -3.8817    1.2135    0.0000 N   0  0  0  0  0  0  0  0  0  0  0  0
   -3.4182    2.6401    0.0000 C   0  0  0  0  0  0  0  0  0  0  0  0
   -1.9509    2.9520    0.0000 C   0  0  0  0  0  0  0  0  0  0  0  0
   -1.4874    4.3786    0.0000 C   0  0  0  0  0  0  0  0  0  0  0  0
   -2.4911    5.4933    0.0000 C   0  0  0  0  0  0  0  0  0  0  0  0
   -2.0276    6.9199    0.0000 C   0  0  0  0  0  0  0  0  0  0  0  0
   -0.5604    7.2317    0.0000 C   0  0  0  0  0  0  0  0  0  0  0  0
   -0.0968    8.6583    0.0000 C   0  0  0  0  0  0  0  0  0  0  0  0
   -1.1005    9.7730    0.0000 C   0  0  0  0  0  0  0  0  0  0  0  0
   -2.5677    9.4612    0.0000 C   0  0  0  0  0  0  0  0  0  0  0  0
   -3.0313    8.0346    0.0000 C   0  0  0  0  0  0  0  0  0  0  0  0
   -3.9583    5.1814    0.0000 C   0  0  0  0  0  0  0  0  0  0  0  0
   -4.4218    3.7548    0.0000 C   0  0  0  0  0  0  0  0  0  0  0  0
   -5.8891    3.4430    0.0000 C   0  0  0  0  0  0  0  0  0  0  0  0
   -6.8928    4.5577    0.0000 C   0  0  0  0  0  0  0  0  0  0  0  0
   -8.3600    4.2458    0.0000 C   0  0  0  0  0  0  0  0  0  0  0  0
   -8.8235    2.8192    0.0000 C   0  0  0  0  0  0  0  0  0  0  0  0
  -10.2907    2.5074    0.0000 C   0  0  0  0  0  0  0  0  0  0  0  0
  -10.9008    1.1370    0.0000 N   0  0  0  0  0  0  0  0  0  0  0  0
  -12.3926    1.2938    0.0000 N   0  0  0  0  0  0  0  0  0  0  0  0
  -12.7045    2.7611    0.0000 N   0  0  0  0  0  0  0  0  0  0  0  0
  -11.4055    3.5111    0.0000 N   0  0  0  0  0  0  0  0  0  0  0  0
  -11.2487    5.0028    0.0000 C   0  0  0  0  0  0  0  0  0  0  0  0
   -9.8783    5.6129    0.0000 C   0  0  0  0  0  0  0  0  0  0  0  0
   -9.7215    7.1047    0.0000 C   0  0  0  0  0  0  0  0  0  0  0  0
  -10.9351    7.9864    0.0000 C   0  0  0  0  0  0  0  0  0  0  0  0
  -10.7783    9.4782    0.0000 C   0  0  0  0  0  0  0  0  0  0  0  0
   -9.4080   10.0883    0.0000 C   0  0  0  0  0  0  0  0  0  0  0  0
   -9.2512   11.5801    0.0000 C   0  0  0  0  0  0  0  0  0  0  0  0
  -10.4647   12.4618    0.0000 C   0  0  0  0  0  0  0  0  0  0  0  0
  -11.8350   11.8516    0.0000 C   0  0  0  0  0  0  0  0  0  0  0  0
  -11.9918   10.3599    0.0000 C   0  0  0  0  0  0  0  0  0  0  0  0
  -12.3054    7.3763    0.0000 C   0  0  0  0  0  0  0  0  0  0  0  0
  -12.4622    5.8845    0.0000 C   0  0  0  0  0  0  0  0  0  0  0  0
   -7.8198    1.7045    0.0000 C   0  0  0  0  0  0  0  0  0  0  0  0
   -6.3526    2.0164    0.0000 C   0  0  0  0  0  0  0  0  0  0  0  0
   -0.7500   -1.2990    0.0000 C   0  0  0  0  0  0  0  0  0  0  0  0
   -1.5000   -2.5981    0.0000 O   0  0  0  0  0  0  0  0  0  0  0  0
    0.7500   -1.2990    0.0000 N   0  0  0  0  0  0  0  0  0  0  0  0
  1  2  1  0
  2  3  2  0
  3  4  1  0
  4  5  2  0
  5  6  1  0
  6  7  2  0
  7  8  1  0
  8  9  2  0
  9 10  1  0
 10 11  1  0
 11 12  2  0
 12 13  1  0
 13 14  2  0
 14 15  1  0
 15 16  2  0
 16 17  1  0
 17 18  2  0
 18 19  1  0
 19 20  2  0
 14 21  1  0
 21 22  2  0
 22 23  1  0
 23 24  2  0
 24 25  1  0
 25 26  2  0
 26 27  1  0
 27 28  2  0
 28 29  1  0
 29 30  2  0
 30 31  1  0
 31 32  1  0
 32 33  2  0
 33 34  1  0
 34 35  2  0
 35 36  1  0
 36 37  2  0
 37 38  1  0
 38 39  2  0
 39 40  1  0
 40 41  2  0
 35 42  1  0
 42 43  2  0
 26 44  1  0
 44 45  2  0
  5 46  1  0
 46 47  2  0
 46 48  1  0
 48  2  1  0
 10  6  1  0
 22 11  1  0
 45 23  1  0
 20 15  1  0
 31 27  1  0
 43 32  1  0
 41 36  1  0
M  END
>  <Title>  (470) 
idAASBgen7

$$$$

     RDKit          2D

 34 38  0  0  0  0  0  0  0  0999 V2000
    3.0000    0.0000    0.0000 C   0  0  0  0  0  0  0  0  0  0  0  0
    1.5000    0.0000    0.0000 C   0  0  0  0  0  0  0  0  0  0  0  0
    0.7500   -1.2990    0.0000 C   0  0  0  0  0  0  0  0  0  0  0  0
   -0.7500   -1.2990    0.0000 C   0  0  0  0  0  0  0  0  0  0  0  0
   -1.5000    0.0000    0.0000 C   0  0  0  0  0  0  0  0  0  0  0  0
   -3.0000    0.0000    0.0000 C   0  0  0  0  0  0  0  0  0  0  0  0
   -3.7500   -1.2990    0.0000 O   0  0  0  0  0  0  0  0  0  0  0  0
   -3.7500    1.2990    0.0000 N   0  0  0  0  0  0  0  0  0  0  0  0
   -5.2500    1.2990    0.0000 C   0  0  0  0  0  0  0  0  0  0  0  0
   -6.1317    0.0855    0.0000 N   0  0  0  0  0  0  0  0  0  0  0  0
   -7.5583    0.5490    0.0000 N   0  0  0  0  0  0  0  0  0  0  0  0
   -7.5583    2.0490    0.0000 N   0  0  0  0  0  0  0  0  0  0  0  0
   -6.1317    2.5126    0.0000 N   0  0  0  0  0  0  0  0  0  0  0  0
   -5.6682    3.9391    0.0000 C   0  0  0  0  0  0  0  0  0  0  0  0
   -6.5498    5.1527    0.0000 C   0  0  0  0  0  0  0  0  0  0  0  0
   -5.6682    6.3662    0.0000 C   0  0  0  0  0  0  0  0  0  0  0  0
   -4.2416    5.9027    0.0000 C   0  0  0  0  0  0  0  0  0  0  0  0
   -3.0280    6.7844    0.0000 C   0  0  0  0  0  0  0  0  0  0  0  0
   -1.6577    6.1742    0.0000 C   0  0  0  0  0  0  0  0  0  0  0  0
   -0.4442    7.0559    0.0000 C   0  0  0  0  0  0  0  0  0  0  0  0
   -0.6010    8.5477    0.0000 C   0  0  0  0  0  0  0  0  0  0  0  0
    0.6125    9.4294    0.0000 C   0  0  0  0  0  0  0  0  0  0  0  0
    1.9829    8.8193    0.0000 C   0  0  0  0  0  0  0  0  0  0  0  0
    3.1964    9.7010    0.0000 C   0  0  0  0  0  0  0  0  0  0  0  0
    3.0396   11.1927    0.0000 C   0  0  0  0  0  0  0  0  0  0  0  0
    1.6693   11.8028    0.0000 C   0  0  0  0  0  0  0  0  0  0  0  0
    0.4557   10.9212    0.0000 C   0  0  0  0  0  0  0  0  0  0  0  0
   -1.9713    9.1578    0.0000 C   0  0  0  0  0  0  0  0  0  0  0  0
   -3.1848    8.2761    0.0000 C   0  0  0  0  0  0  0  0  0  0  0  0
   -4.2416    4.4027    0.0000 C   0  0  0  0  0  0  0  0  0  0  0  0
   -3.0280    3.5210    0.0000 O   0  0  0  0  0  0  0  0  0  0  0  0
   -0.7500    1.2990    0.0000 C   0  0  0  0  0  0  0  0  0  0  0  0
   -1.5000    2.5981    0.0000 O   0  0  0  0  0  0  0  0  0  0  0  0
    0.7500    1.2990    0.0000 N   0  0  0  0  0  0  0  0  0  0  0  0
  1  2  1  0
  2  3  2  0
  3  4  1  0
  4  5  2  0
  5  6  1  0
  6  7  2  0
  6  8  1  0
  8  9  1  0
  9 10  2  0
 10 11  1  0
 11 12  2  0
 12 13  1  0
 13 14  1  0
 14 15  2  0
 15 16  1  0
 16 17  2  0
 17 18  1  0
 18 19  2  0
 19 20  1  0
 20 21  2  0
 21 22  1  0
 22 23  2  0
 23 24  1  0
 24 25  2  0
 25 26  1  0
 26 27  2  0
 21 28  1  0
 28 29  2  0
 17 30  1  0
 30 31  2  0
  5 32  1  0
 32 33  2  0
 32 34  1  0
 34  2  1  0
 13  9  1  0
 30 14  1  0
 29 18  1  0
 27 22  1  0
M  END
>  <Title>  (471) 
idAASCgen7

$$$$

     RDKit          2D

 41 47  0  0  0  0  0  0  0  0999 V2000
  -13.5163   11.3514    0.0000 C   0  0  0  0  0  0  0  0  0  0  0  0
  -12.1119   10.8244    0.0000 C   0  0  0  0  0  0  0  0  0  0  0  0
  -11.8662    9.3446    0.0000 C   0  0  0  0  0  0  0  0  0  0  0  0
  -10.4619    8.8176    0.0000 C   0  0  0  0  0  0  0  0  0  0  0  0
   -9.3032    9.7703    0.0000 C   0  0  0  0  0  0  0  0  0  0  0  0
   -7.8989    9.2432    0.0000 C   0  0  0  0  0  0  0  0  0  0  0  0
   -6.6470   10.0695    0.0000 N   0  0  0  0  0  0  0  0  0  0  0  0
   -5.4743    9.1343    0.0000 N   0  0  0  0  0  0  0  0  0  0  0  0
   -6.0013    7.7300    0.0000 N   0  0  0  0  0  0  0  0  0  0  0  0
   -7.4998    7.7972    0.0000 N   0  0  0  0  0  0  0  0  0  0  0  0
   -8.4351    6.6245    0.0000 C   0  0  0  0  0  0  0  0  0  0  0  0
   -9.9336    6.6918    0.0000 C   0  0  0  0  0  0  0  0  0  0  0  0
  -10.4606    5.2874    0.0000 N   0  0  0  0  0  0  0  0  0  0  0  0
   -9.2879    4.3522    0.0000 N   0  0  0  0  0  0  0  0  0  0  0  0
   -8.0360    5.1786    0.0000 N   0  0  0  0  0  0  0  0  0  0  0  0
   -6.6317    4.6515    0.0000 C   0  0  0  0  0  0  0  0  0  0  0  0
   -6.3859    3.1718    0.0000 C   0  0  0  0  0  0  0  0  0  0  0  0
   -4.9816    2.6447    0.0000 C   0  0  0  0  0  0  0  0  0  0  0  0
   -3.8230    3.5974    0.0000 C   0  0  0  0  0  0  0  0  0  0  0  0
   -2.4186    3.0703    0.0000 C   0  0  0  0  0  0  0  0  0  0  0  0
   -1.3344    4.1069    0.0000 C   0  0  0  0  0  0  0  0  0  0  0  0
    0.1520    3.9056    0.0000 C   0  0  0  0  0  0  0  0  0  0  0  0
    0.9214    2.6179    0.0000 C   0  0  0  0  0  0  0  0  0  0  0  0
    2.4153    2.7523    0.0000 C   0  0  0  0  0  0  0  0  0  0  0  0
    3.2787    1.5258    0.0000 C   0  0  0  0  0  0  0  0  0  0  0  0
    4.7727    1.6602    0.0000 C   0  0  0  0  0  0  0  0  0  0  0  0
    5.4032    3.0213    0.0000 C   0  0  0  0  0  0  0  0  0  0  0  0
    4.5398    4.2478    0.0000 C   0  0  0  0  0  0  0  0  0  0  0  0
    3.0459    4.1134    0.0000 C   0  0  0  0  0  0  0  0  0  0  0  0
    0.3943    1.2135    0.0000 C   0  0  0  0  0  0  0  0  0  0  0  0
    1.2760    0.0000    0.0000 N   0  0  0  0  0  0  0  0  0  0  0  0
    0.3943   -1.2135    0.0000 N   0  0  0  0  0  0  0  0  0  0  0  0
   -1.0323   -0.7500    0.0000 N   0  0  0  0  0  0  0  0  0  0  0  0
   -1.0323    0.7500    0.0000 N   0  0  0  0  0  0  0  0  0  0  0  0
   -2.2841    1.5763    0.0000 C   0  0  0  0  0  0  0  0  0  0  0  0
   -3.5718    0.8070    0.0000 O   0  0  0  0  0  0  0  0  0  0  0  0
   -4.0687    5.0771    0.0000 C   0  0  0  0  0  0  0  0  0  0  0  0
   -5.4730    5.6042    0.0000 C   0  0  0  0  0  0  0  0  0  0  0  0
   -9.5490   11.2500    0.0000 C   0  0  0  0  0  0  0  0  0  0  0  0
   -8.3903   12.2027    0.0000 O   0  0  0  0  0  0  0  0  0  0  0  0
  -10.9533   11.7771    0.0000 N   0  0  0  0  0  0  0  0  0  0  0  0
  1  2  1  0
  2  3  2  0
  3  4  1  0
  4  5  2  0
  5  6  1  0
  6  7  2  0
  7  8  1  0
  8  9  2  0
  9 10  1  0
 10 11  1  0
 11 12  2  0
 12 13  1  0
 13 14  2  0
 14 15  1  0
 15 16  1  0
 16 17  2  0
 17 18  1  0
 18 19  2  0
 19 20  1  0
 20 21  2  0
 21 22  1  0
 22 23  2  0
 23 24  1  0
 24 25  2  0
 25 26  1  0
 26 27  2  0
 27 28  1  0
 28 29  2  0
 23 30  1  0
 30 31  2  0
 31 32  1  0
 32 33  2  0
 33 34  1  0
 34 35  1  0
 35 36  2  0
 19 37  1  0
 37 38  2  0
  5 39  1  0
 39 40  2  0
 39 41  1  0
 41  2  1  0
 10  6  1  0
 15 11  1  0
 38 16  1  0
 35 20  1  0
 29 24  1  0
 34 30  1  0
M  END
>  <Title>  (472) 
idAASDgen7

$$$$

     RDKit          2D

 18 19  0  0  0  0  0  0  0  0999 V2000
    3.0000    0.0000    0.0000 C   0  0  0  0  0  0  0  0  0  0  0  0
    1.5000    0.0000    0.0000 C   0  0  0  0  0  0  0  0  0  0  0  0
    0.7500   -1.2990    0.0000 C   0  0  0  0  0  0  0  0  0  0  0  0
   -0.7500   -1.2990    0.0000 C   0  0  0  0  0  0  0  0  0  0  0  0
   -1.5000    0.0000    0.0000 C   0  0  0  0  0  0  0  0  0  0  0  0
   -3.0000    0.0000    0.0000 N   0  0  0  0  0  0  0  0  0  0  0  0
   -3.7500    1.2990    0.0000 C   0  0  0  0  0  0  0  0  0  0  0  0
   -5.2500    1.2990    0.0000 C   0  0  0  0  0  0  0  0  0  0  0  0
   -6.0000    0.0000    0.0000 N   0  0  0  0  0  0  0  0  0  0  0  0
   -7.5000    0.0000    0.0000 C   0  0  0  0  0  0  0  0  0  0  0  0
   -8.2500   -1.2990    0.0000 O   0  0  0  0  0  0  0  0  0  0  0  0
   -8.2500    1.2990    0.0000 N   0  0  0  0  0  0  0  0  0  0  0  0
   -9.7500    1.2990    0.0000 O   0  0  0  0  0  0  0  0  0  0  0  0
   -5.2500   -1.2990    0.0000 N   0  0  0  0  0  0  0  0  0  0  0  0
   -3.7500   -1.2990    0.0000 N   0  0  0  0  0  0  0  0  0  0  0  0
   -0.7500    1.2990    0.0000 C   0  0  0  0  0  0  0  0  0  0  0  0
   -1.5000    2.5981    0.0000 O   0  0  0  0  0  0  0  0  0  0  0  0
    0.7500    1.2990    0.0000 N   0  0  0  0  0  0  0  0  0  0  0  0
  1  2  1  0
  2  3  2  0
  3  4  1  0
  4  5  2  0
  5  6  1  0
  6  7  1  0
  7  8  1  0
  8  9  1  0
  9 10  1  0
 10 11  2  0
 10 12  1  0
 12 13  1  0
  9 14  1  0
 14 15  2  0
  5 16  1  0
 16 17  2  0
 16 18  1  0
 18  2  1  0
 15  6  1  0
M  END
>  <Title>  (473) 
idAASEgen7

$$$$

     RDKit          2D

 58 66  0  0  0  0  0  0  0  0999 V2000
  -14.9962    5.8473    0.0000 C   0  0  0  0  0  0  0  0  0  0  0  0
  -13.7827    4.9656    0.0000 C   0  0  0  0  0  0  0  0  0  0  0  0
  -13.9395    3.4739    0.0000 C   0  0  0  0  0  0  0  0  0  0  0  0
  -12.7260    2.5922    0.0000 C   0  0  0  0  0  0  0  0  0  0  0  0
  -11.3556    3.2023    0.0000 C   0  0  0  0  0  0  0  0  0  0  0  0
  -10.1421    2.3206    0.0000 N   0  0  0  0  0  0  0  0  0  0  0  0
   -8.7718    2.9307    0.0000 C   0  0  0  0  0  0  0  0  0  0  0  0
   -8.6150    4.4225    0.0000 O   0  0  0  0  0  0  0  0  0  0  0  0
   -7.5583    2.0490    0.0000 C   0  0  0  0  0  0  0  0  0  0  0  0
   -7.5583    0.5490    0.0000 N   0  0  0  0  0  0  0  0  0  0  0  0
   -6.1317    0.0855    0.0000 N   0  0  0  0  0  0  0  0  0  0  0  0
   -5.2500    1.2990    0.0000 N   0  0  0  0  0  0  0  0  0  0  0  0
   -6.1317    2.5126    0.0000 N   0  0  0  0  0  0  0  0  0  0  0  0
   -5.6682    3.9391    0.0000 C   0  0  0  0  0  0  0  0  0  0  0  0
   -6.5498    5.1527    0.0000 N   0  0  0  0  0  0  0  0  0  0  0  0
   -5.6682    6.3662    0.0000 N   0  0  0  0  0  0  0  0  0  0  0  0
   -4.2416    5.9027    0.0000 N   0  0  0  0  0  0  0  0  0  0  0  0
   -4.2416    4.4027    0.0000 N   0  0  0  0  0  0  0  0  0  0  0  0
   -3.0280    3.5210    0.0000 C   0  0  0  0  0  0  0  0  0  0  0  0
   -3.1848    2.0292    0.0000 C   0  0  0  0  0  0  0  0  0  0  0  0
   -1.9713    1.1475    0.0000 C   0  0  0  0  0  0  0  0  0  0  0  0
   -0.6010    1.7576    0.0000 C   0  0  0  0  0  0  0  0  0  0  0  0
    0.6125    0.8760    0.0000 C   0  0  0  0  0  0  0  0  0  0  0  0
    0.4557   -0.6158    0.0000 C   0  0  0  0  0  0  0  0  0  0  0  0
    1.6693   -1.4975    0.0000 C   0  0  0  0  0  0  0  0  0  0  0  0
    3.0396   -0.8874    0.0000 C   0  0  0  0  0  0  0  0  0  0  0  0
    3.1964    0.6044    0.0000 C   0  0  0  0  0  0  0  0  0  0  0  0
    1.9829    1.4861    0.0000 C   0  0  0  0  0  0  0  0  0  0  0  0
   -0.4442    3.2494    0.0000 C   0  0  0  0  0  0  0  0  0  0  0  0
   -1.6577    4.1311    0.0000 C   0  0  0  0  0  0  0  0  0  0  0  0
   -1.5009    5.6229    0.0000 C   0  0  0  0  0  0  0  0  0  0  0  0
   -0.1306    6.2330    0.0000 C   0  0  0  0  0  0  0  0  0  0  0  0
    0.0262    7.7248    0.0000 C   0  0  0  0  0  0  0  0  0  0  0  0
   -1.1873    8.6064    0.0000 C   0  0  0  0  0  0  0  0  0  0  0  0
   -1.0306   10.0982    0.0000 C   0  0  0  0  0  0  0  0  0  0  0  0
   -2.2441   10.9799    0.0000 O   0  0  0  0  0  0  0  0  0  0  0  0
    0.3398   10.7083    0.0000 N   0  0  0  0  0  0  0  0  0  0  0  0
    0.4966   12.2001    0.0000 C   0  0  0  0  0  0  0  0  0  0  0  0
   -0.6182   13.2038    0.0000 N   0  0  0  0  0  0  0  0  0  0  0  0
   -0.0081   14.5741    0.0000 N   0  0  0  0  0  0  0  0  0  0  0  0
    1.4837   14.4173    0.0000 N   0  0  0  0  0  0  0  0  0  0  0  0
    1.7956   12.9501    0.0000 N   0  0  0  0  0  0  0  0  0  0  0  0
    3.1659   12.3400    0.0000 C   0  0  0  0  0  0  0  0  0  0  0  0
    3.3227   10.8482    0.0000 C   0  0  0  0  0  0  0  0  0  0  0  0
    4.6930   10.2381    0.0000 C   0  0  0  0  0  0  0  0  0  0  0  0
    5.9066   11.1198    0.0000 C   0  0  0  0  0  0  0  0  0  0  0  0
    7.2769   10.5097    0.0000 C   0  0  0  0  0  0  0  0  0  0  0  0
    7.4337    9.0179    0.0000 C   0  0  0  0  0  0  0  0  0  0  0  0
    8.8040    8.4078    0.0000 C   0  0  0  0  0  0  0  0  0  0  0  0
   10.0175    9.2895    0.0000 C   0  0  0  0  0  0  0  0  0  0  0  0
    9.8607   10.7813    0.0000 C   0  0  0  0  0  0  0  0  0  0  0  0
    8.4904   11.3914    0.0000 C   0  0  0  0  0  0  0  0  0  0  0  0
    5.7498   12.6116    0.0000 C   0  0  0  0  0  0  0  0  0  0  0  0
    4.3794   13.2217    0.0000 C   0  0  0  0  0  0  0  0  0  0  0  0
   -2.5577    7.9963    0.0000 C   0  0  0  0  0  0  0  0  0  0  0  0
   -2.7145    6.5046    0.0000 C   0  0  0  0  0  0  0  0  0  0  0  0
  -11.1988    4.6941    0.0000 C   0  0  0  0  0  0  0  0  0  0  0  0
  -12.4124    5.5757    0.0000 C   0  0  0  0  0  0  0  0  0  0  0  0
  1  2  1  0
  2  3  2  0
  3  4  1  0
  4  5  2  0
  5  6  1  0
  6  7  1  0
  7  8  2  0
  7  9  1  0
  9 10  2  0
 10 11  1  0
 11 12  2  0
 12 13  1  0
 13 14  1  0
 14 15  2  0
 15 16  1  0
 16 17  2  0
 17 18  1  0
 18 19  1  0
 19 20  2  0
 20 21  1  0
 21 22  2  0
 22 23  1  0
 23 24  2  0
 24 25  1  0
 25 26  2  0
 26 27  1  0
 27 28  2  0
 22 29  1  0
 29 30  2  0
 30 31  1  0
 31 32  2  0
 32 33  1  0
 33 34  2  0
 34 35  1  0
 35 36  2  0
 35 37  1  0
 37 38  1  0
 38 39  2  0
 39 40  1  0
 40 41  2  0
 41 42  1  0
 42 43  1  0
 43 44  2  0
 44 45  1  0
 45 46  2  0
 46 47  1  0
 47 48  2  0
 48 49  1  0
 49 50  2  0
 50 51  1  0
 51 52  2  0
 46 53  1  0
 53 54  2  0
 34 55  1  0
 55 56  2  0
  5 57  1  0
 57 58  2  0
 58  2  1  0
 13  9  1  0
 18 14  1  0
 30 19  1  0
 56 31  1  0
 28 23  1  0
 42 38  1  0
 54 43  1  0
 52 47  1  0
M  END
>  <Title>  (474) 
idAASFgen7

$$$$

     RDKit          2D

 40 44  0  0  0  0  0  0  0  0999 V2000
    3.0000   -5.1962    0.0000 C   0  0  0  0  0  0  0  0  0  0  0  0
    3.7500   -3.8971    0.0000 C   0  0  0  0  0  0  0  0  0  0  0  0
    5.2500   -3.8971    0.0000 C   0  0  0  0  0  0  0  0  0  0  0  0
    3.0000   -2.5981    0.0000 C   0  0  0  0  0  0  0  0  0  0  0  0
    3.7500   -1.2990    0.0000 C   0  0  0  0  0  0  0  0  0  0  0  0
    5.2500   -1.2990    0.0000 C   0  0  0  0  0  0  0  0  0  0  0  0
    3.0000    0.0000    0.0000 C   0  0  0  0  0  0  0  0  0  0  0  0
    1.5000    0.0000    0.0000 C   0  0  0  0  0  0  0  0  0  0  0  0
    0.7500   -1.2990    0.0000 C   0  0  0  0  0  0  0  0  0  0  0  0
   -0.7500   -1.2990    0.0000 C   0  0  0  0  0  0  0  0  0  0  0  0
   -1.5000    0.0000    0.0000 C   0  0  0  0  0  0  0  0  0  0  0  0
   -3.0000    0.0000    0.0000 N   0  0  0  0  0  0  0  0  0  0  0  0
   -3.7500    1.2990    0.0000 C   0  0  0  0  0  0  0  0  0  0  0  0
   -3.0000    2.5981    0.0000 O   0  0  0  0  0  0  0  0  0  0  0  0
   -5.2500    1.2990    0.0000 C   0  0  0  0  0  0  0  0  0  0  0  0
   -6.0000    2.5981    0.0000 C   0  0  0  0  0  0  0  0  0  0  0  0
   -7.5000    2.5981    0.0000 C   0  0  0  0  0  0  0  0  0  0  0  0
   -8.2500    1.2990    0.0000 C   0  0  0  0  0  0  0  0  0  0  0  0
   -9.7500    1.2990    0.0000 C   0  0  0  0  0  0  0  0  0  0  0  0
  -10.6317    0.0855    0.0000 N   0  0  0  0  0  0  0  0  0  0  0  0
  -12.0583    0.5490    0.0000 N   0  0  0  0  0  0  0  0  0  0  0  0
  -12.0583    2.0490    0.0000 N   0  0  0  0  0  0  0  0  0  0  0  0
  -10.6317    2.5126    0.0000 N   0  0  0  0  0  0  0  0  0  0  0  0
  -10.1682    3.9391    0.0000 C   0  0  0  0  0  0  0  0  0  0  0  0
  -11.0498    5.1527    0.0000 C   0  0  0  0  0  0  0  0  0  0  0  0
  -10.1682    6.3662    0.0000 C   0  0  0  0  0  0  0  0  0  0  0  0
   -8.7416    5.9027    0.0000 C   0  0  0  0  0  0  0  0  0  0  0  0
   -7.5280    6.7844    0.0000 C   0  0  0  0  0  0  0  0  0  0  0  0
   -6.1577    6.1742    0.0000 C   0  0  0  0  0  0  0  0  0  0  0  0
   -4.9442    7.0559    0.0000 C   0  0  0  0  0  0  0  0  0  0  0  0
   -5.1010    8.5477    0.0000 C   0  0  0  0  0  0  0  0  0  0  0  0
   -6.4713    9.1578    0.0000 C   0  0  0  0  0  0  0  0  0  0  0  0
   -7.6848    8.2761    0.0000 C   0  0  0  0  0  0  0  0  0  0  0  0
   -8.7416    4.4027    0.0000 C   0  0  0  0  0  0  0  0  0  0  0  0
   -7.5280    3.5210    0.0000 O   0  0  0  0  0  0  0  0  0  0  0  0
   -7.5000    0.0000    0.0000 C   0  0  0  0  0  0  0  0  0  0  0  0
   -6.0000    0.0000    0.0000 C   0  0  0  0  0  0  0  0  0  0  0  0
   -0.7500    1.2990    0.0000 C   0  0  0  0  0  0  0  0  0  0  0  0
   -1.5000    2.5981    0.0000 O   0  0  0  0  0  0  0  0  0  0  0  0
    0.7500    1.2990    0.0000 N   0  0  0  0  0  0  0  0  0  0  0  0
  1  2  1  0
  2  3  1  0
  2  4  1  0
  4  5  1  0
  5  6  1  0
  5  7  1  0
  7  8  1  0
  8  9  2  0
  9 10  1  0
 10 11  2  0
 11 12  1  0
 12 13  1  0
 13 14  2  0
 13 15  1  0
 15 16  1  0
 16 17  2  0
 17 18  1  0
 18 19  1  0
 19 20  2  0
 20 21  1  0
 21 22  2  0
 22 23  1  0
 23 24  1  0
 24 25  2  0
 25 26  1  0
 26 27  2  0
 27 28  1  0
 28 29  2  0
 29 30  1  0
 30 31  2  0
 31 32  1  0
 32 33  2  0
 27 34  1  0
 34 35  2  0
 18 36  2  0
 36 37  1  0
 11 38  1  0
 38 39  2  0
 38 40  1  0
 40  8  1  0
 37 15  1  0
 23 19  1  0
 34 24  1  0
 33 28  1  0
M  END
>  <Title>  (475) 
idAASGgen7

$$$$

     RDKit          2D

 12 12  0  0  0  0  0  0  0  0999 V2000
    3.7500   -1.2990    0.0000 C   0  0  0  0  0  0  0  0  0  0  0  0
    3.0000    0.0000    0.0000 O   0  0  0  0  0  0  0  0  0  0  0  0
    1.5000    0.0000    0.0000 C   0  0  0  0  0  0  0  0  0  0  0  0
    0.7500   -1.2990    0.0000 C   0  0  0  0  0  0  0  0  0  0  0  0
   -0.7500   -1.2990    0.0000 C   0  0  0  0  0  0  0  0  0  0  0  0
   -1.5000    0.0000    0.0000 C   0  0  0  0  0  0  0  0  0  0  0  0
   -3.0000    0.0000    0.0000 C   0  0  0  0  0  0  0  0  0  0  0  0
   -3.7500   -1.2990    0.0000 O   0  0  0  0  0  0  0  0  0  0  0  0
   -3.7500    1.2990    0.0000 O   0  0  0  0  0  0  0  0  0  0  0  0
   -0.7500    1.2990    0.0000 C   0  0  0  0  0  0  0  0  0  0  0  0
   -1.5000    2.5981    0.0000 O   0  0  0  0  0  0  0  0  0  0  0  0
    0.7500    1.2990    0.0000 N   0  0  0  0  0  0  0  0  0  0  0  0
  1  2  1  0
  2  3  1  0
  3  4  2  0
  4  5  1  0
  5  6  2  0
  6  7  1  0
  7  8  2  0
  7  9  1  0
  6 10  1  0
 10 11  2  0
 10 12  1  0
 12  3  1  0
M  END
>  <Title>  (476) 
idAASHgen7

$$$$

     RDKit          2D

 24 26  0  0  0  0  0  0  0  0999 V2000
    3.0000    0.0000    0.0000 C   0  0  0  0  0  0  0  0  0  0  0  0
    1.5000    0.0000    0.0000 C   0  0  0  0  0  0  0  0  0  0  0  0
    0.7500    1.2990    0.0000 C   0  0  0  0  0  0  0  0  0  0  0  0
   -0.7500    1.2990    0.0000 C   0  0  0  0  0  0  0  0  0  0  0  0
   -1.5000    0.0000    0.0000 C   0  0  0  0  0  0  0  0  0  0  0  0
   -3.0000    0.0000    0.0000 C   0  0  0  0  0  0  0  0  0  0  0  0
   -3.8817   -1.2135    0.0000 C   0  0  0  0  0  0  0  0  0  0  0  0
   -5.3083   -0.7500    0.0000 N   0  0  0  0  0  0  0  0  0  0  0  0
   -5.3083    0.7500    0.0000 N   0  0  0  0  0  0  0  0  0  0  0  0
   -3.8817    1.2135    0.0000 N   0  0  0  0  0  0  0  0  0  0  0  0
   -3.4182    2.6401    0.0000 C   0  0  0  0  0  0  0  0  0  0  0  0
   -1.9509    2.9520    0.0000 C   0  0  0  0  0  0  0  0  0  0  0  0
   -1.4874    4.3786    0.0000 C   0  0  0  0  0  0  0  0  0  0  0  0
   -2.4911    5.4933    0.0000 C   0  0  0  0  0  0  0  0  0  0  0  0
   -2.0276    6.9199    0.0000 C   0  0  0  0  0  0  0  0  0  0  0  0
   -3.0313    8.0346    0.0000 O   0  0  0  0  0  0  0  0  0  0  0  0
   -0.5604    7.2317    0.0000 N   0  0  0  0  0  0  0  0  0  0  0  0
   -0.0968    8.6583    0.0000 O   0  0  0  0  0  0  0  0  0  0  0  0
   -3.9583    5.1814    0.0000 N   0  0  0  0  0  0  0  0  0  0  0  0
   -4.4218    3.7548    0.0000 C   0  0  0  0  0  0  0  0  0  0  0  0
   -5.8891    3.4430    0.0000 O   0  0  0  0  0  0  0  0  0  0  0  0
   -0.7500   -1.2990    0.0000 C   0  0  0  0  0  0  0  0  0  0  0  0
   -1.5000   -2.5981    0.0000 O   0  0  0  0  0  0  0  0  0  0  0  0
    0.7500   -1.2990    0.0000 N   0  0  0  0  0  0  0  0  0  0  0  0
  1  2  1  0
  2  3  2  0
  3  4  1  0
  4  5  2  0
  5  6  1  0
  6  7  2  0
  7  8  1  0
  8  9  2  0
  9 10  1  0
 10 11  1  0
 11 12  2  0
 12 13  1  0
 13 14  2  0
 14 15  1  0
 15 16  2  0
 15 17  1  0
 17 18  1  0
 14 19  1  0
 19 20  1  0
 20 21  2  0
  5 22  1  0
 22 23  2  0
 22 24  1  0
 24  2  1  0
 10  6  1  0
 20 11  1  0
M  END
>  <Title>  (477) 
idAASIgen7

$$$$

     RDKit          2D

 27 30  0  0  0  0  0  0  0  0999 V2000
    3.7500    1.2990    0.0000 C   0  0  0  0  0  0  0  0  0  0  0  0
    3.0000    0.0000    0.0000 O   0  0  0  0  0  0  0  0  0  0  0  0
    1.5000    0.0000    0.0000 C   0  0  0  0  0  0  0  0  0  0  0  0
    0.7500    1.2990    0.0000 C   0  0  0  0  0  0  0  0  0  0  0  0
   -0.7500    1.2990    0.0000 C   0  0  0  0  0  0  0  0  0  0  0  0
   -1.5000    0.0000    0.0000 C   0  0  0  0  0  0  0  0  0  0  0  0
   -3.0000    0.0000    0.0000 C   0  0  0  0  0  0  0  0  0  0  0  0
   -3.8817   -1.2135    0.0000 N   0  0  0  0  0  0  0  0  0  0  0  0
   -5.3083   -0.7500    0.0000 N   0  0  0  0  0  0  0  0  0  0  0  0
   -5.3083    0.7500    0.0000 N   0  0  0  0  0  0  0  0  0  0  0  0
   -3.8817    1.2135    0.0000 N   0  0  0  0  0  0  0  0  0  0  0  0
   -3.4182    2.6401    0.0000 C   0  0  0  0  0  0  0  0  0  0  0  0
   -1.9509    2.9520    0.0000 C   0  0  0  0  0  0  0  0  0  0  0  0
   -1.4874    4.3786    0.0000 C   0  0  0  0  0  0  0  0  0  0  0  0
   -2.4911    5.4933    0.0000 C   0  0  0  0  0  0  0  0  0  0  0  0
   -2.0276    6.9199    0.0000 C   0  0  0  0  0  0  0  0  0  0  0  0
   -0.5604    7.2317    0.0000 C   0  0  0  0  0  0  0  0  0  0  0  0
   -0.0968    8.6583    0.0000 C   0  0  0  0  0  0  0  0  0  0  0  0
   -1.1005    9.7730    0.0000 C   0  0  0  0  0  0  0  0  0  0  0  0
   -2.5677    9.4612    0.0000 C   0  0  0  0  0  0  0  0  0  0  0  0
   -3.0313    8.0346    0.0000 C   0  0  0  0  0  0  0  0  0  0  0  0
   -3.9583    5.1814    0.0000 C   0  0  0  0  0  0  0  0  0  0  0  0
   -4.9620    6.2961    0.0000 O   0  0  0  0  0  0  0  0  0  0  0  0
   -4.4218    3.7548    0.0000 N   0  0  0  0  0  0  0  0  0  0  0  0
   -0.7500   -1.2990    0.0000 C   0  0  0  0  0  0  0  0  0  0  0  0
   -1.5000   -2.5981    0.0000 O   0  0  0  0  0  0  0  0  0  0  0  0
    0.7500   -1.2990    0.0000 N   0  0  0  0  0  0  0  0  0  0  0  0
  1  2  1  0
  2  3  1  0
  3  4  2  0
  4  5  1  0
  5  6  2  0
  6  7  1  0
  7  8  2  0
  8  9  1  0
  9 10  2  0
 10 11  1  0
 11 12  1  0
 12 13  2  0
 13 14  1  0
 14 15  2  0
 15 16  1  0
 16 17  2  0
 17 18  1  0
 18 19  2  0
 19 20  1  0
 20 21  2  0
 15 22  1  0
 22 23  2  0
 22 24  1  0
  6 25  1  0
 25 26  2  0
 25 27  1  0
 27  3  1  0
 11  7  1  0
 24 12  1  0
 21 16  1  0
M  END
>  <Title>  (478) 
idAASJgen7

$$$$

     RDKit          2D

 39 44  0  0  0  0  0  0  0  0999 V2000
    3.0000    0.0000    0.0000 C   0  0  0  0  0  0  0  0  0  0  0  0
    1.5000    0.0000    0.0000 C   0  0  0  0  0  0  0  0  0  0  0  0
    0.7500   -1.2990    0.0000 C   0  0  0  0  0  0  0  0  0  0  0  0
   -0.7500   -1.2990    0.0000 C   0  0  0  0  0  0  0  0  0  0  0  0
   -1.5000    0.0000    0.0000 C   0  0  0  0  0  0  0  0  0  0  0  0
   -3.0000    0.0000    0.0000 C   0  0  0  0  0  0  0  0  0  0  0  0
   -3.7500   -1.2990    0.0000 O   0  0  0  0  0  0  0  0  0  0  0  0
   -3.7500    1.2990    0.0000 N   0  0  0  0  0  0  0  0  0  0  0  0
   -5.2500    1.2990    0.0000 C   0  0  0  0  0  0  0  0  0  0  0  0
   -6.1317    0.0855    0.0000 N   0  0  0  0  0  0  0  0  0  0  0  0
   -7.5583    0.5490    0.0000 N   0  0  0  0  0  0  0  0  0  0  0  0
   -7.5583    2.0490    0.0000 N   0  0  0  0  0  0  0  0  0  0  0  0
   -6.1317    2.5126    0.0000 N   0  0  0  0  0  0  0  0  0  0  0  0
   -5.6682    3.9391    0.0000 C   0  0  0  0  0  0  0  0  0  0  0  0
   -4.2009    4.2510    0.0000 C   0  0  0  0  0  0  0  0  0  0  0  0
   -3.7374    5.6776    0.0000 C   0  0  0  0  0  0  0  0  0  0  0  0
   -4.7411    6.7923    0.0000 C   0  0  0  0  0  0  0  0  0  0  0  0
   -4.2776    8.2189    0.0000 C   0  0  0  0  0  0  0  0  0  0  0  0
   -5.1593    9.4324    0.0000 N   0  0  0  0  0  0  0  0  0  0  0  0
   -4.2776   10.6460    0.0000 N   0  0  0  0  0  0  0  0  0  0  0  0
   -2.8510   10.1824    0.0000 N   0  0  0  0  0  0  0  0  0  0  0  0
   -2.8510    8.6824    0.0000 N   0  0  0  0  0  0  0  0  0  0  0  0
   -1.6375    7.8008    0.0000 N   0  0  0  0  0  0  0  0  0  0  0  0
   -1.7943    6.3090    0.0000 N   0  0  0  0  0  0  0  0  0  0  0  0
   -0.5807    5.4273    0.0000 N   0  0  0  0  0  0  0  0  0  0  0  0
    0.7896    6.0374    0.0000 N   0  0  0  0  0  0  0  0  0  0  0  0
    0.9464    7.5292    0.0000 N   0  0  0  0  0  0  0  0  0  0  0  0
   -0.2671    8.4109    0.0000 N   0  0  0  0  0  0  0  0  0  0  0  0
   -0.1104    9.9026    0.0000 C   0  0  0  0  0  0  0  0  0  0  0  0
    1.2600   10.5127    0.0000 C   0  0  0  0  0  0  0  0  0  0  0  0
    1.4168   12.0045    0.0000 C   0  0  0  0  0  0  0  0  0  0  0  0
    0.2032   12.8862    0.0000 C   0  0  0  0  0  0  0  0  0  0  0  0
   -1.1671   12.2761    0.0000 C   0  0  0  0  0  0  0  0  0  0  0  0
   -1.3239   10.7843    0.0000 C   0  0  0  0  0  0  0  0  0  0  0  0
   -6.2083    6.4805    0.0000 C   0  0  0  0  0  0  0  0  0  0  0  0
   -6.6718    5.0539    0.0000 C   0  0  0  0  0  0  0  0  0  0  0  0
   -0.7500    1.2990    0.0000 C   0  0  0  0  0  0  0  0  0  0  0  0
   -1.5000    2.5981    0.0000 O   0  0  0  0  0  0  0  0  0  0  0  0
    0.7500    1.2990    0.0000 N   0  0  0  0  0  0  0  0  0  0  0  0
  1  2  1  0
  2  3  2  0
  3  4  1  0
  4  5  2  0
  5  6  1  0
  6  7  2  0
  6  8  1  0
  8  9  1  0
  9 10  2  0
 10 11  1  0
 11 12  2  0
 12 13  1  0
 13 14  1  0
 14 15  2  0
 15 16  1  0
 16 17  2  0
 17 18  1  0
 18 19  2  0
 19 20  1  0
 20 21  2  0
 21 22  1  0
 22 23  1  0
 23 24  1  0
 24 25  2  0
 25 26  1  0
 26 27  2  0
 27 28  1  0
 28 29  1  0
 29 30  2  0
 30 31  1  0
 31 32  2  0
 32 33  1  0
 33 34  2  0
 17 35  1  0
 35 36  1  0
  5 37  1  0
 37 38  2  0
 37 39  1  0
 39  2  1  0
 13  9  1  0
 36 14  1  0
 22 18  1  0
 28 23  1  0
 34 29  1  0
M  END
>  <Title>  (479) 
idAASKgen7

$$$$

     RDKit          2D

 26 28  0  0  0  0  0  0  0  0999 V2000
    7.4884   -2.5695    0.0000 C   0  0  0  0  0  0  0  0  0  0  0  0
    6.6935   -1.2974    0.0000 C   0  0  0  0  0  0  0  0  0  0  0  0
    7.6577   -0.1484    0.0000 C   0  0  0  0  0  0  0  0  0  0  0  0
    7.7623    1.3480    0.0000 C   0  0  0  0  0  0  0  0  0  0  0  0
    6.9674    2.6201    0.0000 C   0  0  0  0  0  0  0  0  0  0  0  0
    5.5767    3.1820    0.0000 C   0  0  0  0  0  0  0  0  0  0  0  0
    4.1212    2.8191    0.0000 C   0  0  0  0  0  0  0  0  0  0  0  0
    4.1212    4.3191    0.0000 C   0  0  0  0  0  0  0  0  0  0  0  0
    3.1570    5.4681    0.0000 C   0  0  0  0  0  0  0  0  0  0  0  0
    1.6798    5.7286    0.0000 C   0  0  0  0  0  0  0  0  0  0  0  0
    1.4194    7.2058    0.0000 C   0  0  0  0  0  0  0  0  0  0  0  0
    0.3808    4.9786    0.0000 C   0  0  0  0  0  0  0  0  0  0  0  0
   -0.1322    3.5691    0.0000 C   0  0  0  0  0  0  0  0  0  0  0  0
    0.3808    2.1595    0.0000 C   0  0  0  0  0  0  0  0  0  0  0  0
    1.6798    1.4095    0.0000 C   0  0  0  0  0  0  0  0  0  0  0  0
    3.1570    1.6700    0.0000 N   0  0  0  0  0  0  0  0  0  0  0  0
    3.0524    0.1737    0.0000 C   0  0  0  0  0  0  0  0  0  0  0  0
    3.8473   -1.0984    0.0000 C   0  0  0  0  0  0  0  0  0  0  0  0
    5.2381   -1.6603    0.0000 N   0  0  0  0  0  0  0  0  0  0  0  0
    2.1929    0.0000    0.0000 C   0  0  0  0  0  0  0  0  0  0  0  0
    1.6798   -1.4095    0.0000 C   0  0  0  0  0  0  0  0  0  0  0  0
    0.3808   -2.1595    0.0000 C   0  0  0  0  0  0  0  0  0  0  0  0
   -1.0964   -1.8991    0.0000 C   0  0  0  0  0  0  0  0  0  0  0  0
   -2.0606   -0.7500    0.0000 C   0  0  0  0  0  0  0  0  0  0  0  0
   -2.0606    0.7500    0.0000 C   0  0  0  0  0  0  0  0  0  0  0  0
   -1.0964    1.8991    0.0000 C   0  0  0  0  0  0  0  0  0  0  0  0
  1  2  1  0
  2  3  2  0
  3  4  1  0
  4  5  2  0
  5  6  1  0
  6  7  2  0
  7  8  1  0
  8  9  2  0
  9 10  1  0
 10 11  1  0
 10 12  2  0
 12 13  1  0
 13 14  2  0
 14 15  1  0
 15 16  1  0
 16 17  1  0
 17 18  1  0
 18 19  1  0
 15 20  2  0
 20 21  1  0
 21 22  2  0
 22 23  1  0
 23 24  2  0
 24 25  1  0
 25 26  2  0
 19  2  1  0
 16  7  1  0
 26 14  1  0
M  END
>  <Title>  (480) 
idAASLgen7

$$$$

     RDKit          2D

 20 22  0  0  0  0  0  0  0  0999 V2000
    3.0000    0.0000    0.0000 C   0  0  0  0  0  0  0  0  0  0  0  0
    1.5000    0.0000    0.0000 C   0  0  0  0  0  0  0  0  0  0  0  0
    0.7500   -1.2990    0.0000 C   0  0  0  0  0  0  0  0  0  0  0  0
   -0.7500   -1.2990    0.0000 C   0  0  0  0  0  0  0  0  0  0  0  0
   -1.5000    0.0000    0.0000 C   0  0  0  0  0  0  0  0  0  0  0  0
   -3.0000    0.0000    0.0000 C   0  0  0  0  0  0  0  0  0  0  0  0
   -3.8817   -1.2135    0.0000 N   0  0  0  0  0  0  0  0  0  0  0  0
   -5.3083   -0.7500    0.0000 N   0  0  0  0  0  0  0  0  0  0  0  0
   -5.3083    0.7500    0.0000 N   0  0  0  0  0  0  0  0  0  0  0  0
   -3.8817    1.2135    0.0000 N   0  0  0  0  0  0  0  0  0  0  0  0
   -3.4182    2.6401    0.0000 C   0  0  0  0  0  0  0  0  0  0  0  0
   -1.9509    2.9520    0.0000 C   0  0  0  0  0  0  0  0  0  0  0  0
   -1.4874    4.3786    0.0000 C   0  0  0  0  0  0  0  0  0  0  0  0
   -2.4911    5.4933    0.0000 C   0  0  0  0  0  0  0  0  0  0  0  0
   -2.0276    6.9199    0.0000 C   0  0  0  0  0  0  0  0  0  0  0  0
   -3.9583    5.1814    0.0000 C   0  0  0  0  0  0  0  0  0  0  0  0
   -4.9620    6.2961    0.0000 O   0  0  0  0  0  0  0  0  0  0  0  0
   -4.4218    3.7548    0.0000 N   0  0  0  0  0  0  0  0  0  0  0  0
   -0.7500    1.2990    0.0000 N   0  0  0  0  0  0  0  0  0  0  0  0
    0.7500    1.2990    0.0000 C   0  0  0  0  0  0  0  0  0  0  0  0
  1  2  1  0
  2  3  2  0
  3  4  1  0
  4  5  2  0
  5  6  1  0
  6  7  2  0
  7  8  1  0
  8  9  2  0
  9 10  1  0
 10 11  1  0
 11 12  2  0
 12 13  1  0
 13 14  2  0
 14 15  1  0
 14 16  1  0
 16 17  2  0
 16 18  1  0
  5 19  1  0
 19 20  1  0
 20  2  1  0
 10  6  1  0
 18 11  1  0
M  END
>  <Title>  (481) 
idAASMgen7

$$$$

     RDKit          2D

 46 52  0  0  0  0  0  0  0  0999 V2000
    3.7500   -1.2990    0.0000 C   0  0  0  0  0  0  0  0  0  0  0  0
    3.0000    0.0000    0.0000 O   0  0  0  0  0  0  0  0  0  0  0  0
    1.5000    0.0000    0.0000 C   0  0  0  0  0  0  0  0  0  0  0  0
    0.7500   -1.2990    0.0000 C   0  0  0  0  0  0  0  0  0  0  0  0
   -0.7500   -1.2990    0.0000 C   0  0  0  0  0  0  0  0  0  0  0  0
   -1.5000    0.0000    0.0000 C   0  0  0  0  0  0  0  0  0  0  0  0
   -3.0000    0.0000    0.0000 C   0  0  0  0  0  0  0  0  0  0  0  0
   -3.7500   -1.2990    0.0000 O   0  0  0  0  0  0  0  0  0  0  0  0
   -3.7500    1.2990    0.0000 N   0  0  0  0  0  0  0  0  0  0  0  0
   -5.2500    1.2990    0.0000 C   0  0  0  0  0  0  0  0  0  0  0  0
   -6.1317    0.0855    0.0000 N   0  0  0  0  0  0  0  0  0  0  0  0
   -7.5583    0.5490    0.0000 C   0  0  0  0  0  0  0  0  0  0  0  0
   -7.5583    2.0490    0.0000 N   0  0  0  0  0  0  0  0  0  0  0  0
   -6.1317    2.5126    0.0000 N   0  0  0  0  0  0  0  0  0  0  0  0
   -5.6682    3.9391    0.0000 C   0  0  0  0  0  0  0  0  0  0  0  0
   -4.2009    4.2510    0.0000 C   0  0  0  0  0  0  0  0  0  0  0  0
   -3.7374    5.6776    0.0000 C   0  0  0  0  0  0  0  0  0  0  0  0
   -4.7411    6.7923    0.0000 C   0  0  0  0  0  0  0  0  0  0  0  0
   -4.2776    8.2189    0.0000 C   0  0  0  0  0  0  0  0  0  0  0  0
   -5.1593    9.4324    0.0000 N   0  0  0  0  0  0  0  0  0  0  0  0
   -4.2776   10.6460    0.0000 N   0  0  0  0  0  0  0  0  0  0  0  0
   -2.8510   10.1824    0.0000 N   0  0  0  0  0  0  0  0  0  0  0  0
   -2.8510    8.6824    0.0000 N   0  0  0  0  0  0  0  0  0  0  0  0
   -1.6375    7.8008    0.0000 C   0  0  0  0  0  0  0  0  0  0  0  0
   -1.7943    6.3090    0.0000 C   0  0  0  0  0  0  0  0  0  0  0  0
   -0.5807    5.4273    0.0000 C   0  0  0  0  0  0  0  0  0  0  0  0
    0.7896    6.0374    0.0000 C   0  0  0  0  0  0  0  0  0  0  0  0
    0.9464    7.5292    0.0000 C   0  0  0  0  0  0  0  0  0  0  0  0
   -0.2671    8.4109    0.0000 C   0  0  0  0  0  0  0  0  0  0  0  0
   -6.2083    6.4805    0.0000 C   0  0  0  0  0  0  0  0  0  0  0  0
   -6.6718    5.0539    0.0000 C   0  0  0  0  0  0  0  0  0  0  0  0
   -8.1391    4.7420    0.0000 C   0  0  0  0  0  0  0  0  0  0  0  0
   -8.7492    3.3717    0.0000 C   0  0  0  0  0  0  0  0  0  0  0  0
  -10.2410    3.5285    0.0000 C   0  0  0  0  0  0  0  0  0  0  0  0
  -10.5528    4.9957    0.0000 C   0  0  0  0  0  0  0  0  0  0  0  0
  -11.9231    5.6058    0.0000 C   0  0  0  0  0  0  0  0  0  0  0  0
  -12.0799    7.0976    0.0000 C   0  0  0  0  0  0  0  0  0  0  0  0
  -13.4503    7.7077    0.0000 C   0  0  0  0  0  0  0  0  0  0  0  0
  -14.6638    6.8260    0.0000 C   0  0  0  0  0  0  0  0  0  0  0  0
  -14.5070    5.3342    0.0000 C   0  0  0  0  0  0  0  0  0  0  0  0
  -13.1367    4.7241    0.0000 C   0  0  0  0  0  0  0  0  0  0  0  0
   -9.2538    5.7457    0.0000 C   0  0  0  0  0  0  0  0  0  0  0  0
   -9.0970    7.2375    0.0000 O   0  0  0  0  0  0  0  0  0  0  0  0
   -0.7500    1.2990    0.0000 C   0  0  0  0  0  0  0  0  0  0  0  0
   -1.5000    2.5981    0.0000 O   0  0  0  0  0  0  0  0  0  0  0  0
    0.7500    1.2990    0.0000 N   0  0  0  0  0  0  0  0  0  0  0  0
  1  2  1  0
  2  3  1  0
  3  4  2  0
  4  5  1  0
  5  6  2  0
  6  7  1  0
  7  8  2  0
  7  9  1  0
  9 10  1  0
 10 11  2  0
 11 12  1  0
 12 13  2  0
 13 14  1  0
 14 15  1  0
 15 16  2  0
 16 17  1  0
 17 18  2  0
 18 19  1  0
 19 20  2  0
 20 21  1  0
 21 22  2  0
 22 23  1  0
 23 24  1  0
 24 25  2  0
 25 26  1  0
 26 27  2  0
 27 28  1  0
 28 29  2  0
 18 30  1  0
 30 31  2  0
 31 32  1  0
 32 33  2  0
 33 34  1  0
 34 35  2  0
 35 36  1  0
 36 37  2  0
 37 38  1  0
 38 39  2  0
 39 40  1  0
 40 41  2  0
 35 42  1  0
 42 43  2  0
  6 44  1  0
 44 45  2  0
 44 46  1  0
 46  3  1  0
 14 10  1  0
 31 15  1  0
 42 32  1  0
 23 19  1  0
 29 24  1  0
 41 36  1  0
M  END
>  <Title>  (482) 
idAASNgen7

$$$$

     RDKit          2D

 14 14  0  0  0  0  0  0  0  0999 V2000
    6.1771   -1.2990    0.0000 C   0  0  0  0  0  0  0  0  0  0  0  0
    4.6771   -1.2990    0.0000 C   0  0  0  0  0  0  0  0  0  0  0  0
    3.9271   -2.5981    0.0000 O   0  0  0  0  0  0  0  0  0  0  0  0
    3.9271    0.0000    0.0000 O   0  0  0  0  0  0  0  0  0  0  0  0
    2.4271    0.0000    0.0000 C   0  0  0  0  0  0  0  0  0  0  0  0
    1.9635   -1.4266    0.0000 C   0  0  0  0  0  0  0  0  0  0  0  0
    0.7500   -2.3083    0.0000 C   0  0  0  0  0  0  0  0  0  0  0  0
   -0.7500   -2.3083    0.0000 C   0  0  0  0  0  0  0  0  0  0  0  0
   -1.9635   -1.4266    0.0000 C   0  0  0  0  0  0  0  0  0  0  0  0
   -2.4271    0.0000    0.0000 C   0  0  0  0  0  0  0  0  0  0  0  0
   -1.9635    1.4266    0.0000 C   0  0  0  0  0  0  0  0  0  0  0  0
   -0.7500    2.3083    0.0000 C   0  0  0  0  0  0  0  0  0  0  0  0
    0.7500    2.3083    0.0000 C   0  0  0  0  0  0  0  0  0  0  0  0
    1.9635    1.4266    0.0000 C   0  0  0  0  0  0  0  0  0  0  0  0
  1  2  1  0
  2  3  2  0
  2  4  1  0
  4  5  1  0
  5  6  2  0
  6  7  1  0
  7  8  2  0
  8  9  1  0
  9 10  2  0
 10 11  1  0
 11 12  2  0
 12 13  1  0
 13 14  2  0
 14  5  1  0
M  END
>  <Title>  (483) 
idAASOgen7

$$$$

     RDKit          2D

 49 55  0  0  0  0  0  0  0  0999 V2000
  -14.1058   -0.2260    0.0000 C   0  0  0  0  0  0  0  0  0  0  0  0
  -12.7643    0.4450    0.0000 C   0  0  0  0  0  0  0  0  0  0  0  0
  -12.6746    1.9423    0.0000 C   0  0  0  0  0  0  0  0  0  0  0  0
  -11.3330    2.6133    0.0000 C   0  0  0  0  0  0  0  0  0  0  0  0
  -10.0811    1.7870    0.0000 C   0  0  0  0  0  0  0  0  0  0  0  0
   -8.7396    2.4579    0.0000 C   0  0  0  0  0  0  0  0  0  0  0  0
   -8.6499    3.9552    0.0000 O   0  0  0  0  0  0  0  0  0  0  0  0
   -7.4877    1.6316    0.0000 N   0  0  0  0  0  0  0  0  0  0  0  0
   -6.1461    2.3025    0.0000 C   0  0  0  0  0  0  0  0  0  0  0  0
   -5.9004    3.7823    0.0000 N   0  0  0  0  0  0  0  0  0  0  0  0
   -4.4172    4.0058    0.0000 N   0  0  0  0  0  0  0  0  0  0  0  0
   -3.7462    2.6643    0.0000 N   0  0  0  0  0  0  0  0  0  0  0  0
   -4.8148    1.6116    0.0000 N   0  0  0  0  0  0  0  0  0  0  0  0
   -4.5912    0.1283    0.0000 C   0  0  0  0  0  0  0  0  0  0  0  0
   -5.7639   -0.8069    0.0000 C   0  0  0  0  0  0  0  0  0  0  0  0
   -5.5404   -2.2901    0.0000 C   0  0  0  0  0  0  0  0  0  0  0  0
   -4.1441   -2.8382    0.0000 C   0  0  0  0  0  0  0  0  0  0  0  0
   -3.9205   -4.3214    0.0000 C   0  0  0  0  0  0  0  0  0  0  0  0
   -5.0933   -5.2566    0.0000 C   0  0  0  0  0  0  0  0  0  0  0  0
   -4.8697   -6.7399    0.0000 C   0  0  0  0  0  0  0  0  0  0  0  0
   -3.4734   -7.2879    0.0000 C   0  0  0  0  0  0  0  0  0  0  0  0
   -3.2498   -8.7711    0.0000 C   0  0  0  0  0  0  0  0  0  0  0  0
   -4.4226   -9.7064    0.0000 C   0  0  0  0  0  0  0  0  0  0  0  0
   -4.1990  -11.1896    0.0000 C   0  0  0  0  0  0  0  0  0  0  0  0
   -2.8027  -11.7376    0.0000 C   0  0  0  0  0  0  0  0  0  0  0  0
   -1.6299  -10.8024    0.0000 C   0  0  0  0  0  0  0  0  0  0  0  0
   -1.8535   -9.3192    0.0000 C   0  0  0  0  0  0  0  0  0  0  0  0
   -2.3006   -6.3527    0.0000 C   0  0  0  0  0  0  0  0  0  0  0  0
   -2.5242   -4.8694    0.0000 C   0  0  0  0  0  0  0  0  0  0  0  0
   -1.3515   -3.9342    0.0000 C   0  0  0  0  0  0  0  0  0  0  0  0
   -1.6852   -2.4718    0.0000 C   0  0  0  0  0  0  0  0  0  0  0  0
   -0.7500   -1.2990    0.0000 C   0  0  0  0  0  0  0  0  0  0  0  0
    0.7500   -1.2990    0.0000 C   0  0  0  0  0  0  0  0  0  0  0  0
    1.4008    0.0524    0.0000 C   0  0  0  0  0  0  0  0  0  0  0  0
    0.5558    1.2918    0.0000 O   0  0  0  0  0  0  0  0  0  0  0  0
    1.6852   -2.4718    0.0000 C   0  0  0  0  0  0  0  0  0  0  0  0
    3.1186   -2.0297    0.0000 C   0  0  0  0  0  0  0  0  0  0  0  0
    4.2182   -3.0499    0.0000 C   0  0  0  0  0  0  0  0  0  0  0  0
    3.8844   -4.5123    0.0000 C   0  0  0  0  0  0  0  0  0  0  0  0
    2.4510   -4.9544    0.0000 C   0  0  0  0  0  0  0  0  0  0  0  0
    1.3515   -3.9342    0.0000 C   0  0  0  0  0  0  0  0  0  0  0  0
   -0.0000   -4.5850    0.0000 C   0  0  0  0  0  0  0  0  0  0  0  0
   -0.0000   -6.0850    0.0000 O   0  0  0  0  0  0  0  0  0  0  0  0
   -2.9713   -1.9029    0.0000 N   0  0  0  0  0  0  0  0  0  0  0  0
   -3.1949   -0.4197    0.0000 C   0  0  0  0  0  0  0  0  0  0  0  0
   -2.0221    0.5156    0.0000 O   0  0  0  0  0  0  0  0  0  0  0  0
  -10.1708    0.2896    0.0000 C   0  0  0  0  0  0  0  0  0  0  0  0
   -8.9190   -0.5367    0.0000 O   0  0  0  0  0  0  0  0  0  0  0  0
  -11.5124   -0.3813    0.0000 N   0  0  0  0  0  0  0  0  0  0  0  0
  1  2  1  0
  2  3  2  0
  3  4  1  0
  4  5  2  0
  5  6  1  0
  6  7  2  0
  6  8  1  0
  8  9  1  0
  9 10  2  0
 10 11  1  0
 11 12  2  0
 12 13  1  0
 13 14  1  0
 14 15  2  0
 15 16  1  0
 16 17  2  0
 17 18  1  0
 18 19  2  0
 19 20  1  0
 20 21  2  0
 21 22  1  0
 22 23  2  0
 23 24  1  0
 24 25  2  0
 25 26  1  0
 26 27  2  0
 21 28  1  0
 28 29  2  0
 29 30  1  0
 30 31  2  0
 31 32  1  0
 32 33  2  0
 33 34  1  0
 34 35  2  0
 33 36  1  0
 36 37  2  0
 37 38  1  0
 38 39  2  0
 39 40  1  0
 40 41  2  0
 41 42  1  0
 42 43  2  0
 17 44  1  0
 44 45  1  0
 45 46  2  0
  5 47  1  0
 47 48  2  0
 47 49  1  0
 49  2  1  0
 13  9  1  0
 45 14  1  0
 29 18  1  0
 42 30  1  0
 27 22  1  0
 41 36  1  0
M  END
>  <Title>  (484) 
idAASPgen7

$$$$

     RDKit          2D

 18 20  0  0  0  0  0  0  0  0999 V2000
    3.0000    0.0000    0.0000 C   0  0  0  0  0  0  0  0  0  0  0  0
    1.5000    0.0000    0.0000 C   0  0  0  0  0  0  0  0  0  0  0  0
    0.7500   -1.2990    0.0000 C   0  0  0  0  0  0  0  0  0  0  0  0
   -0.7500   -1.2990    0.0000 C   0  0  0  0  0  0  0  0  0  0  0  0
   -1.5000    0.0000    0.0000 C   0  0  0  0  0  0  0  0  0  0  0  0
   -3.0000    0.0000    0.0000 C   0  0  0  0  0  0  0  0  0  0  0  0
   -3.8817   -1.2135    0.0000 N   0  0  0  0  0  0  0  0  0  0  0  0
   -5.3083   -0.7500    0.0000 N   0  0  0  0  0  0  0  0  0  0  0  0
   -5.3083    0.7500    0.0000 N   0  0  0  0  0  0  0  0  0  0  0  0
   -3.8817    1.2135    0.0000 N   0  0  0  0  0  0  0  0  0  0  0  0
   -3.4182    2.6401    0.0000 C   0  0  0  0  0  0  0  0  0  0  0  0
   -1.9509    2.9520    0.0000 C   0  0  0  0  0  0  0  0  0  0  0  0
   -1.4874    4.3786    0.0000 C   0  0  0  0  0  0  0  0  0  0  0  0
   -2.4911    5.4933    0.0000 C   0  0  0  0  0  0  0  0  0  0  0  0
   -3.9583    5.1814    0.0000 C   0  0  0  0  0  0  0  0  0  0  0  0
   -4.4218    3.7548    0.0000 C   0  0  0  0  0  0  0  0  0  0  0  0
   -0.7500    1.2990    0.0000 C   0  0  0  0  0  0  0  0  0  0  0  0
    0.7500    1.2990    0.0000 C   0  0  0  0  0  0  0  0  0  0  0  0
  1  2  1  0
  2  3  2  0
  3  4  1  0
  4  5  2  0
  5  6  1  0
  6  7  2  0
  7  8  1  0
  8  9  2  0
  9 10  1  0
 10 11  1  0
 11 12  2  0
 12 13  1  0
 13 14  2  0
 14 15  1  0
 15 16  2  0
  5 17  1  0
 17 18  2  0
 18  2  1  0
 10  6  1  0
 16 11  1  0
M  END
>  <Title>  (485) 
idAASQgen7

$$$$

     RDKit          2D

 34 39  0  0  0  0  0  0  0  0999 V2000
   -1.2266    3.6245    0.0000 C   0  0  0  0  0  0  0  0  0  0  0  0
    0.1437    3.0144    0.0000 C   0  0  0  0  0  0  0  0  0  0  0  0
    0.4556    1.5472    0.0000 C   0  0  0  0  0  0  0  0  0  0  0  0
    1.9474    1.3904    0.0000 C   0  0  0  0  0  0  0  0  0  0  0  0
    2.5575    2.7607    0.0000 C   0  0  0  0  0  0  0  0  0  0  0  0
    4.0247    3.0725    0.0000 C   0  0  0  0  0  0  0  0  0  0  0  0
    4.6348    4.4429    0.0000 N   0  0  0  0  0  0  0  0  0  0  0  0
    6.1266    4.2861    0.0000 N   0  0  0  0  0  0  0  0  0  0  0  0
    6.4385    2.8189    0.0000 N   0  0  0  0  0  0  0  0  0  0  0  0
    5.1394    2.0689    0.0000 N   0  0  0  0  0  0  0  0  0  0  0  0
    4.9826    0.5771    0.0000 C   0  0  0  0  0  0  0  0  0  0  0  0
    6.0974   -0.4266    0.0000 C   0  0  0  0  0  0  0  0  0  0  0  0
    5.4873   -1.7969    0.0000 C   0  0  0  0  0  0  0  0  0  0  0  0
    3.9955   -1.6402    0.0000 C   0  0  0  0  0  0  0  0  0  0  0  0
    2.9918   -2.7549    0.0000 C   0  0  0  0  0  0  0  0  0  0  0  0
    1.5000   -2.5981    0.0000 N   0  0  0  0  0  0  0  0  0  0  0  0
    0.8899   -3.9684    0.0000 N   0  0  0  0  0  0  0  0  0  0  0  0
    2.0046   -4.9721    0.0000 N   0  0  0  0  0  0  0  0  0  0  0  0
    3.3037   -4.2221    0.0000 N   0  0  0  0  0  0  0  0  0  0  0  0
    4.6740   -4.8322    0.0000 C   0  0  0  0  0  0  0  0  0  0  0  0
    4.8308   -6.3240    0.0000 C   0  0  0  0  0  0  0  0  0  0  0  0
    6.2011   -6.9341    0.0000 C   0  0  0  0  0  0  0  0  0  0  0  0
    7.4146   -6.0524    0.0000 C   0  0  0  0  0  0  0  0  0  0  0  0
    8.7849   -6.6625    0.0000 C   0  0  0  0  0  0  0  0  0  0  0  0
    9.9984   -5.7808    0.0000 C   0  0  0  0  0  0  0  0  0  0  0  0
   11.3688   -6.3909    0.0000 C   0  0  0  0  0  0  0  0  0  0  0  0
   11.5256   -7.8827    0.0000 C   0  0  0  0  0  0  0  0  0  0  0  0
   10.3120   -8.7644    0.0000 C   0  0  0  0  0  0  0  0  0  0  0  0
    8.9417   -8.1543    0.0000 C   0  0  0  0  0  0  0  0  0  0  0  0
    7.2578   -4.5606    0.0000 C   0  0  0  0  0  0  0  0  0  0  0  0
    5.8875   -3.9505    0.0000 C   0  0  0  0  0  0  0  0  0  0  0  0
    3.6836   -0.1729    0.0000 C   0  0  0  0  0  0  0  0  0  0  0  0
    2.3133    0.4372    0.0000 O   0  0  0  0  0  0  0  0  0  0  0  0
    1.4428    3.7644    0.0000 N   0  0  0  0  0  0  0  0  0  0  0  0
  1  2  1  0
  2  3  2  0
  3  4  1  0
  4  5  2  0
  5  6  1  0
  6  7  2  0
  7  8  1  0
  8  9  2  0
  9 10  1  0
 10 11  1  0
 11 12  2  0
 12 13  1  0
 13 14  2  0
 14 15  1  0
 15 16  2  0
 16 17  1  0
 17 18  2  0
 18 19  1  0
 19 20  1  0
 20 21  2  0
 21 22  1  0
 22 23  2  0
 23 24  1  0
 24 25  2  0
 25 26  1  0
 26 27  2  0
 27 28  1  0
 28 29  2  0
 23 30  1  0
 30 31  2  0
 14 32  1  0
 32 33  2  0
  5 34  1  0
 34  2  1  0
 10  6  1  0
 32 11  1  0
 19 15  1  0
 31 20  1  0
 29 24  1  0
M  END
>  <Title>  (486) 
idAASRgen7

$$$$

     RDKit          2D

  9  9  0  0  0  0  0  0  0  0999 V2000
    3.7500   -1.2990    0.0000 C   0  0  0  0  0  0  0  0  0  0  0  0
    3.0000    0.0000    0.0000 C   0  0  0  0  0  0  0  0  0  0  0  0
    3.7500    1.2990    0.0000 C   0  0  0  0  0  0  0  0  0  0  0  0
    1.5000    0.0000    0.0000 C   0  0  0  0  0  0  0  0  0  0  0  0
    0.7500   -1.2990    0.0000 C   0  0  0  0  0  0  0  0  0  0  0  0
   -0.7500   -1.2990    0.0000 C   0  0  0  0  0  0  0  0  0  0  0  0
   -1.5000    0.0000    0.0000 C   0  0  0  0  0  0  0  0  0  0  0  0
   -0.7500    1.2990    0.0000 C   0  0  0  0  0  0  0  0  0  0  0  0
    0.7500    1.2990    0.0000 C   0  0  0  0  0  0  0  0  0  0  0  0
  1  2  1  0
  2  3  1  0
  2  4  1  0
  4  5  1  0
  5  6  1  0
  6  7  1  0
  7  8  1  0
  8  9  1  0
  9  4  1  0
M  END
>  <Title>  (487) 
idAASSgen7

$$$$

     RDKit          2D

 24 27  0  0  0  0  0  0  0  0999 V2000
    3.0000    0.0000    0.0000 C   0  0  0  0  0  0  0  0  0  0  0  0
    1.5000    0.0000    0.0000 C   0  0  0  0  0  0  0  0  0  0  0  0
    0.7500   -1.2990    0.0000 C   0  0  0  0  0  0  0  0  0  0  0  0
   -0.7500   -1.2990    0.0000 C   0  0  0  0  0  0  0  0  0  0  0  0
   -1.5000    0.0000    0.0000 C   0  0  0  0  0  0  0  0  0  0  0  0
   -3.0000    0.0000    0.0000 C   0  0  0  0  0  0  0  0  0  0  0  0
   -3.8817   -1.2135    0.0000 N   0  0  0  0  0  0  0  0  0  0  0  0
   -5.3083   -0.7500    0.0000 N   0  0  0  0  0  0  0  0  0  0  0  0
   -5.3083    0.7500    0.0000 N   0  0  0  0  0  0  0  0  0  0  0  0
   -3.8817    1.2135    0.0000 N   0  0  0  0  0  0  0  0  0  0  0  0
   -3.4182    2.6401    0.0000 C   0  0  0  0  0  0  0  0  0  0  0  0
   -4.2998    3.8536    0.0000 C   0  0  0  0  0  0  0  0  0  0  0  0
   -3.4182    5.0672    0.0000 C   0  0  0  0  0  0  0  0  0  0  0  0
   -1.9916    4.6036    0.0000 C   0  0  0  0  0  0  0  0  0  0  0  0
   -0.7780    5.4853    0.0000 C   0  0  0  0  0  0  0  0  0  0  0  0
    0.5923    4.8752    0.0000 C   0  0  0  0  0  0  0  0  0  0  0  0
    1.8058    5.7569    0.0000 C   0  0  0  0  0  0  0  0  0  0  0  0
    1.6490    7.2487    0.0000 C   0  0  0  0  0  0  0  0  0  0  0  0
    0.2787    7.8588    0.0000 N   0  0  0  0  0  0  0  0  0  0  0  0
   -0.9348    6.9771    0.0000 C   0  0  0  0  0  0  0  0  0  0  0  0
   -1.9916    3.1036    0.0000 C   0  0  0  0  0  0  0  0  0  0  0  0
   -0.7780    2.2220    0.0000 O   0  0  0  0  0  0  0  0  0  0  0  0
   -0.7500    1.2990    0.0000 C   0  0  0  0  0  0  0  0  0  0  0  0
    0.7500    1.2990    0.0000 C   0  0  0  0  0  0  0  0  0  0  0  0
  1  2  1  0
  2  3  2  0
  3  4  1  0
  4  5  2  0
  5  6  1  0
  6  7  2  0
  7  8  1  0
  8  9  2  0
  9 10  1  0
 10 11  1  0
 11 12  2  0
 12 13  1  0
 13 14  2  0
 14 15  1  0
 15 16  2  0
 16 17  1  0
 17 18  2  0
 18 19  1  0
 19 20  2  0
 14 21  1  0
 21 22  2  0
  5 23  1  0
 23 24  1  0
 24  2  1  0
 10  6  1  0
 21 11  1  0
 20 15  1  0
M  END
>  <Title>  (488) 
idAASTgen7

$$$$

     RDKit          2D

 20 22  0  0  0  0  0  0  0  0999 V2000
    3.0000    0.0000    0.0000 C   0  0  0  0  0  0  0  0  0  0  0  0
    1.5000    0.0000    0.0000 C   0  0  0  0  0  0  0  0  0  0  0  0
    0.7500   -1.2990    0.0000 C   0  0  0  0  0  0  0  0  0  0  0  0
   -0.7500   -1.2990    0.0000 C   0  0  0  0  0  0  0  0  0  0  0  0
   -1.5000    0.0000    0.0000 C   0  0  0  0  0  0  0  0  0  0  0  0
   -3.0000    0.0000    0.0000 C   0  0  0  0  0  0  0  0  0  0  0  0
   -3.7500   -1.2990    0.0000 N   0  0  0  0  0  0  0  0  0  0  0  0
   -2.7858   -2.4481    0.0000 C   0  0  0  0  0  0  0  0  0  0  0  0
   -2.7858   -3.9481    0.0000 C   0  0  0  0  0  0  0  0  0  0  0  0
   -3.7500   -5.0972    0.0000 C   0  0  0  0  0  0  0  0  0  0  0  0
   -5.2272   -5.3576    0.0000 C   0  0  0  0  0  0  0  0  0  0  0  0
   -6.5262   -4.6076    0.0000 C   0  0  0  0  0  0  0  0  0  0  0  0
   -7.0393   -3.1981    0.0000 C   0  0  0  0  0  0  0  0  0  0  0  0
   -6.5262   -1.7886    0.0000 C   0  0  0  0  0  0  0  0  0  0  0  0
   -5.2272   -1.0386    0.0000 C   0  0  0  0  0  0  0  0  0  0  0  0
   -3.7500    1.2990    0.0000 C   0  0  0  0  0  0  0  0  0  0  0  0
   -3.0000    2.5981    0.0000 C   0  0  0  0  0  0  0  0  0  0  0  0
   -1.5000    2.5981    0.0000 C   0  0  0  0  0  0  0  0  0  0  0  0
   -0.7500    1.2990    0.0000 C   0  0  0  0  0  0  0  0  0  0  0  0
    0.7500    1.2990    0.0000 C   0  0  0  0  0  0  0  0  0  0  0  0
  1  2  1  0
  2  3  2  0
  3  4  1  0
  4  5  2  0
  5  6  1  0
  6  7  1  0
  7  8  1  0
  8  9  2  0
  9 10  1  0
 10 11  2  0
 11 12  1  0
 12 13  2  0
 13 14  1  0
 14 15  2  0
  6 16  2  0
 16 17  1  0
 17 18  2  0
 18 19  1  0
 19 20  2  0
 20  2  1  0
 19  5  1  0
 15  7  1  0
M  END
>  <Title>  (489) 
idAASUgen7

$$$$

     RDKit          2D

 30 34  0  0  0  0  0  0  0  0999 V2000
  -10.1624    4.2767    0.0000 C   0  0  0  0  0  0  0  0  0  0  0  0
   -8.9488    3.3950    0.0000 C   0  0  0  0  0  0  0  0  0  0  0  0
   -7.5785    4.0051    0.0000 C   0  0  0  0  0  0  0  0  0  0  0  0
   -6.3650    3.1235    0.0000 C   0  0  0  0  0  0  0  0  0  0  0  0
   -6.5218    1.6317    0.0000 C   0  0  0  0  0  0  0  0  0  0  0  0
   -5.3083    0.7500    0.0000 C   0  0  0  0  0  0  0  0  0  0  0  0
   -5.3083   -0.7500    0.0000 N   0  0  0  0  0  0  0  0  0  0  0  0
   -3.8817   -1.2135    0.0000 N   0  0  0  0  0  0  0  0  0  0  0  0
   -3.0000    0.0000    0.0000 N   0  0  0  0  0  0  0  0  0  0  0  0
   -3.8817    1.2135    0.0000 N   0  0  0  0  0  0  0  0  0  0  0  0
   -3.4182    2.6401    0.0000 C   0  0  0  0  0  0  0  0  0  0  0  0
   -4.2998    3.8536    0.0000 N   0  0  0  0  0  0  0  0  0  0  0  0
   -3.4182    5.0672    0.0000 N   0  0  0  0  0  0  0  0  0  0  0  0
   -1.9916    4.6036    0.0000 N   0  0  0  0  0  0  0  0  0  0  0  0
   -1.9916    3.1036    0.0000 N   0  0  0  0  0  0  0  0  0  0  0  0
   -0.7780    2.2220    0.0000 C   0  0  0  0  0  0  0  0  0  0  0  0
    0.5923    2.8321    0.0000 C   0  0  0  0  0  0  0  0  0  0  0  0
    1.8058    1.9504    0.0000 C   0  0  0  0  0  0  0  0  0  0  0  0
    1.6490    0.4586    0.0000 C   0  0  0  0  0  0  0  0  0  0  0  0
    2.8625   -0.4231    0.0000 C   0  0  0  0  0  0  0  0  0  0  0  0
    4.2329    0.1870    0.0000 C   0  0  0  0  0  0  0  0  0  0  0  0
    5.4464   -0.6946    0.0000 C   0  0  0  0  0  0  0  0  0  0  0  0
    5.2896   -2.1864    0.0000 C   0  0  0  0  0  0  0  0  0  0  0  0
    3.9193   -2.7965    0.0000 C   0  0  0  0  0  0  0  0  0  0  0  0
    2.7057   -1.9149    0.0000 C   0  0  0  0  0  0  0  0  0  0  0  0
    0.2787   -0.1515    0.0000 C   0  0  0  0  0  0  0  0  0  0  0  0
   -0.9348    0.7302    0.0000 C   0  0  0  0  0  0  0  0  0  0  0  0
   -7.8921    1.0216    0.0000 C   0  0  0  0  0  0  0  0  0  0  0  0
   -8.0489   -0.4702    0.0000 O   0  0  0  0  0  0  0  0  0  0  0  0
   -9.1056    1.9033    0.0000 N   0  0  0  0  0  0  0  0  0  0  0  0
  1  2  1  0
  2  3  2  0
  3  4  1  0
  4  5  2  0
  5  6  1  0
  6  7  2  0
  7  8  1  0
  8  9  2  0
  9 10  1  0
 10 11  1  0
 11 12  2  0
 12 13  1  0
 13 14  2  0
 14 15  1  0
 15 16  1  0
 16 17  2  0
 17 18  1  0
 18 19  2  0
 19 20  1  0
 20 21  2  0
 21 22  1  0
 22 23  2  0
 23 24  1  0
 24 25  2  0
 19 26  1  0
 26 27  2  0
  5 28  1  0
 28 29  2  0
 28 30  1  0
 30  2  1  0
 10  6  1  0
 15 11  1  0
 27 16  1  0
 25 20  1  0
M  END
>  <Title>  (490) 
idAASVgen7

$$$$

     RDKit          2D

 11 11  0  0  0  0  0  0  0  0999 V2000
    3.9271    0.0000    0.0000 O   0  0  0  0  0  0  0  0  0  0  0  0
    2.4271    0.0000    0.0000 C   0  0  0  0  0  0  0  0  0  0  0  0
    1.9635   -1.4266    0.0000 C   0  0  0  0  0  0  0  0  0  0  0  0
    0.7500   -2.3083    0.0000 C   0  0  0  0  0  0  0  0  0  0  0  0
   -0.7500   -2.3083    0.0000 C   0  0  0  0  0  0  0  0  0  0  0  0
   -1.9635   -1.4266    0.0000 C   0  0  0  0  0  0  0  0  0  0  0  0
   -2.4271    0.0000    0.0000 C   0  0  0  0  0  0  0  0  0  0  0  0
   -1.9635    1.4266    0.0000 C   0  0  0  0  0  0  0  0  0  0  0  0
   -0.7500    2.3083    0.0000 C   0  0  0  0  0  0  0  0  0  0  0  0
    0.7500    2.3083    0.0000 C   0  0  0  0  0  0  0  0  0  0  0  0
    1.9635    1.4266    0.0000 C   0  0  0  0  0  0  0  0  0  0  0  0
  1  2  1  0
  2  3  1  0
  3  4  1  0
  4  5  1  0
  5  6  1  0
  6  7  1  0
  7  8  1  0
  8  9  1  0
  9 10  1  0
 10 11  1  0
 11  2  1  0
M  END
>  <Title>  (491) 
idAASWgen7

$$$$

     RDKit          2D

 32 36  0  0  0  0  0  0  0  0999 V2000
    3.7500    1.2990    0.0000 C   0  0  0  0  0  0  0  0  0  0  0  0
    3.0000    0.0000    0.0000 O   0  0  0  0  0  0  0  0  0  0  0  0
    1.5000    0.0000    0.0000 C   0  0  0  0  0  0  0  0  0  0  0  0
    0.7500    1.2990    0.0000 C   0  0  0  0  0  0  0  0  0  0  0  0
   -0.7500    1.2990    0.0000 C   0  0  0  0  0  0  0  0  0  0  0  0
   -1.5000    0.0000    0.0000 C   0  0  0  0  0  0  0  0  0  0  0  0
   -3.0000    0.0000    0.0000 C   0  0  0  0  0  0  0  0  0  0  0  0
   -3.8817   -1.2135    0.0000 N   0  0  0  0  0  0  0  0  0  0  0  0
   -5.3083   -0.7500    0.0000 N   0  0  0  0  0  0  0  0  0  0  0  0
   -5.3083    0.7500    0.0000 N   0  0  0  0  0  0  0  0  0  0  0  0
   -3.8817    1.2135    0.0000 N   0  0  0  0  0  0  0  0  0  0  0  0
   -3.4182    2.6401    0.0000 C   0  0  0  0  0  0  0  0  0  0  0  0
   -1.9509    2.9520    0.0000 C   0  0  0  0  0  0  0  0  0  0  0  0
   -1.4874    4.3786    0.0000 C   0  0  0  0  0  0  0  0  0  0  0  0
   -2.4911    5.4933    0.0000 C   0  0  0  0  0  0  0  0  0  0  0  0
   -2.0276    6.9199    0.0000 C   0  0  0  0  0  0  0  0  0  0  0  0
   -0.5604    7.2317    0.0000 C   0  0  0  0  0  0  0  0  0  0  0  0
   -0.0968    8.6583    0.0000 C   0  0  0  0  0  0  0  0  0  0  0  0
   -1.1005    9.7730    0.0000 C   0  0  0  0  0  0  0  0  0  0  0  0
   -0.6370   11.1996    0.0000 C   0  0  0  0  0  0  0  0  0  0  0  0
    0.8302   11.5115    0.0000 C   0  0  0  0  0  0  0  0  0  0  0  0
    1.2937   12.9381    0.0000 C   0  0  0  0  0  0  0  0  0  0  0  0
    0.2901   14.0528    0.0000 C   0  0  0  0  0  0  0  0  0  0  0  0
   -1.1772   13.7409    0.0000 N   0  0  0  0  0  0  0  0  0  0  0  0
   -1.6407   12.3143    0.0000 C   0  0  0  0  0  0  0  0  0  0  0  0
   -2.5677    9.4612    0.0000 C   0  0  0  0  0  0  0  0  0  0  0  0
   -3.0313    8.0346    0.0000 C   0  0  0  0  0  0  0  0  0  0  0  0
   -3.9583    5.1814    0.0000 C   0  0  0  0  0  0  0  0  0  0  0  0
   -4.4218    3.7548    0.0000 C   0  0  0  0  0  0  0  0  0  0  0  0
   -0.7500   -1.2990    0.0000 C   0  0  0  0  0  0  0  0  0  0  0  0
   -1.5000   -2.5981    0.0000 O   0  0  0  0  0  0  0  0  0  0  0  0
    0.7500   -1.2990    0.0000 N   0  0  0  0  0  0  0  0  0  0  0  0
  1  2  1  0
  2  3  1  0
  3  4  2  0
  4  5  1  0
  5  6  2  0
  6  7  1  0
  7  8  2  0
  8  9  1  0
  9 10  2  0
 10 11  1  0
 11 12  1  0
 12 13  2  0
 13 14  1  0
 14 15  2  0
 15 16  1  0
 16 17  2  0
 17 18  1  0
 18 19  2  0
 19 20  1  0
 20 21  2  0
 21 22  1  0
 22 23  2  0
 23 24  1  0
 24 25  2  0
 19 26  1  0
 26 27  2  0
 15 28  1  0
 28 29  2  0
  6 30  1  0
 30 31  2  0
 30 32  1  0
 32  3  1  0
 11  7  1  0
 29 12  1  0
 27 16  1  0
 25 20  1  0
M  END
>  <Title>  (492) 
idAASXgen7

$$$$

     RDKit          2D

 38 43  0  0  0  0  0  0  0  0999 V2000
   -5.6321   10.5120    0.0000 C   0  0  0  0  0  0  0  0  0  0  0  0
   -4.4186    9.6303    0.0000 C   0  0  0  0  0  0  0  0  0  0  0  0
   -4.5754    8.1386    0.0000 C   0  0  0  0  0  0  0  0  0  0  0  0
   -3.3619    7.2569    0.0000 C   0  0  0  0  0  0  0  0  0  0  0  0
   -1.9916    7.8670    0.0000 C   0  0  0  0  0  0  0  0  0  0  0  0
   -0.7780    6.9853    0.0000 C   0  0  0  0  0  0  0  0  0  0  0  0
    0.6485    7.4488    0.0000 N   0  0  0  0  0  0  0  0  0  0  0  0
    1.5302    6.2353    0.0000 N   0  0  0  0  0  0  0  0  0  0  0  0
    0.6485    5.0218    0.0000 N   0  0  0  0  0  0  0  0  0  0  0  0
   -0.7780    5.4853    0.0000 N   0  0  0  0  0  0  0  0  0  0  0  0
   -1.9916    4.6036    0.0000 C   0  0  0  0  0  0  0  0  0  0  0  0
   -3.4182    5.0672    0.0000 N   0  0  0  0  0  0  0  0  0  0  0  0
   -4.2998    3.8536    0.0000 N   0  0  0  0  0  0  0  0  0  0  0  0
   -3.4182    2.6401    0.0000 N   0  0  0  0  0  0  0  0  0  0  0  0
   -1.9916    3.1036    0.0000 N   0  0  0  0  0  0  0  0  0  0  0  0
   -0.7780    2.2220    0.0000 C   0  0  0  0  0  0  0  0  0  0  0  0
   -0.9348    0.7302    0.0000 C   0  0  0  0  0  0  0  0  0  0  0  0
    0.2787   -0.1515    0.0000 C   0  0  0  0  0  0  0  0  0  0  0  0
    1.6490    0.4586    0.0000 C   0  0  0  0  0  0  0  0  0  0  0  0
    2.8625   -0.4231    0.0000 C   0  0  0  0  0  0  0  0  0  0  0  0
    2.7057   -1.9149    0.0000 O   0  0  0  0  0  0  0  0  0  0  0  0
    4.2329    0.1870    0.0000 N   0  0  0  0  0  0  0  0  0  0  0  0
    5.4464   -0.6946    0.0000 C   0  0  0  0  0  0  0  0  0  0  0  0
    5.4464   -2.1946    0.0000 N   0  0  0  0  0  0  0  0  0  0  0  0
    6.8730   -2.6582    0.0000 N   0  0  0  0  0  0  0  0  0  0  0  0
    7.7546   -1.4446    0.0000 N   0  0  0  0  0  0  0  0  0  0  0  0
    6.8730   -0.2311    0.0000 N   0  0  0  0  0  0  0  0  0  0  0  0
    7.3365    1.1955    0.0000 C   0  0  0  0  0  0  0  0  0  0  0  0
    8.8037    1.5073    0.0000 C   0  0  0  0  0  0  0  0  0  0  0  0
    9.2672    2.9339    0.0000 C   0  0  0  0  0  0  0  0  0  0  0  0
    8.2635    4.0486    0.0000 C   0  0  0  0  0  0  0  0  0  0  0  0
    6.7963    3.7368    0.0000 C   0  0  0  0  0  0  0  0  0  0  0  0
    6.3328    2.3102    0.0000 C   0  0  0  0  0  0  0  0  0  0  0  0
    1.8058    1.9504    0.0000 C   0  0  0  0  0  0  0  0  0  0  0  0
    0.5923    2.8321    0.0000 C   0  0  0  0  0  0  0  0  0  0  0  0
   -1.8348    9.3588    0.0000 C   0  0  0  0  0  0  0  0  0  0  0  0
   -0.4645    9.9689    0.0000 O   0  0  0  0  0  0  0  0  0  0  0  0
   -3.0483   10.2405    0.0000 N   0  0  0  0  0  0  0  0  0  0  0  0
  1  2  1  0
  2  3  2  0
  3  4  1  0
  4  5  2  0
  5  6  1  0
  6  7  2  0
  7  8  1  0
  8  9  2  0
  9 10  1  0
 10 11  1  0
 11 12  2  0
 12 13  1  0
 13 14  2  0
 14 15  1  0
 15 16  1  0
 16 17  2  0
 17 18  1  0
 18 19  2  0
 19 20  1  0
 20 21  2  0
 20 22  1  0
 22 23  1  0
 23 24  2  0
 24 25  1  0
 25 26  2  0
 26 27  1  0
 27 28  1  0
 28 29  2  0
 29 30  1  0
 30 31  2  0
 31 32  1  0
 32 33  2  0
 19 34  1  0
 34 35  2  0
  5 36  1  0
 36 37  2  0
 36 38  1  0
 38  2  1  0
 10  6  1  0
 15 11  1  0
 35 16  1  0
 27 23  1  0
 33 28  1  0
M  END
>  <Title>  (493) 
idAASYgen7

$$$$

     RDKit          2D

 24 27  0  0  0  0  0  0  0  0999 V2000
    3.0000    0.0000    0.0000 C   0  0  0  0  0  0  0  0  0  0  0  0
    1.5000    0.0000    0.0000 C   0  0  0  0  0  0  0  0  0  0  0  0
    0.7500   -1.2990    0.0000 C   0  0  0  0  0  0  0  0  0  0  0  0
   -0.7500   -1.2990    0.0000 C   0  0  0  0  0  0  0  0  0  0  0  0
   -1.5000    0.0000    0.0000 C   0  0  0  0  0  0  0  0  0  0  0  0
   -3.0000    0.0000    0.0000 C   0  0  0  0  0  0  0  0  0  0  0  0
   -3.8817   -1.2135    0.0000 N   0  0  0  0  0  0  0  0  0  0  0  0
   -5.3083   -0.7500    0.0000 N   0  0  0  0  0  0  0  0  0  0  0  0
   -5.3083    0.7500    0.0000 N   0  0  0  0  0  0  0  0  0  0  0  0
   -3.8817    1.2135    0.0000 N   0  0  0  0  0  0  0  0  0  0  0  0
   -3.4182    2.6401    0.0000 C   0  0  0  0  0  0  0  0  0  0  0  0
   -1.9509    2.9520    0.0000 C   0  0  0  0  0  0  0  0  0  0  0  0
   -1.4874    4.3786    0.0000 C   0  0  0  0  0  0  0  0  0  0  0  0
   -2.4911    5.4933    0.0000 C   0  0  0  0  0  0  0  0  0  0  0  0
   -2.0276    6.9199    0.0000 C   0  0  0  0  0  0  0  0  0  0  0  0
   -0.5604    7.2317    0.0000 C   0  0  0  0  0  0  0  0  0  0  0  0
   -0.0968    8.6583    0.0000 C   0  0  0  0  0  0  0  0  0  0  0  0
   -1.1005    9.7730    0.0000 C   0  0  0  0  0  0  0  0  0  0  0  0
   -2.5677    9.4612    0.0000 C   0  0  0  0  0  0  0  0  0  0  0  0
   -3.0313    8.0346    0.0000 C   0  0  0  0  0  0  0  0  0  0  0  0
   -3.9583    5.1814    0.0000 C   0  0  0  0  0  0  0  0  0  0  0  0
   -4.4218    3.7548    0.0000 C   0  0  0  0  0  0  0  0  0  0  0  0
   -0.7500    1.2990    0.0000 C   0  0  0  0  0  0  0  0  0  0  0  0
    0.7500    1.2990    0.0000 C   0  0  0  0  0  0  0  0  0  0  0  0
  1  2  1  0
  2  3  2  0
  3  4  1  0
  4  5  2  0
  5  6  1  0
  6  7  2  0
  7  8  1  0
  8  9  2  0
  9 10  1  0
 10 11  1  0
 11 12  2  0
 12 13  1  0
 13 14  2  0
 14 15  1  0
 15 16  2  0
 16 17  1  0
 17 18  2  0
 18 19  1  0
 19 20  2  0
 14 21  1  0
 21 22  2  0
  5 23  1  0
 23 24  2  0
 24  2  1  0
 10  6  1  0
 22 11  1  0
 20 15  1  0
M  END
>  <Title>  (494) 
idAASZgen7

$$$$

     RDKit          2D

 38 43  0  0  0  0  0  0  0  0999 V2000
   -5.9567   -1.0603    0.0000 C   0  0  0  0  0  0  0  0  0  0  0  0
   -5.9460    0.4396    0.0000 C   0  0  0  0  0  0  0  0  0  0  0  0
   -7.2397    1.1989    0.0000 C   0  0  0  0  0  0  0  0  0  0  0  0
   -7.2289    2.6988    0.0000 C   0  0  0  0  0  0  0  0  0  0  0  0
   -5.9246    3.4396    0.0000 C   0  0  0  0  0  0  0  0  0  0  0  0
   -5.9139    4.9395    0.0000 C   0  0  0  0  0  0  0  0  0  0  0  0
   -7.1211    5.8298    0.0000 N   0  0  0  0  0  0  0  0  0  0  0  0
   -6.6474    7.2531    0.0000 N   0  0  0  0  0  0  0  0  0  0  0  0
   -5.1474    7.2424    0.0000 N   0  0  0  0  0  0  0  0  0  0  0  0
   -4.6941    5.8125    0.0000 N   0  0  0  0  0  0  0  0  0  0  0  0
   -3.2708    5.3388    0.0000 C   0  0  0  0  0  0  0  0  0  0  0  0
   -2.9695    3.8694    0.0000 C   0  0  0  0  0  0  0  0  0  0  0  0
   -1.5462    3.3957    0.0000 C   0  0  0  0  0  0  0  0  0  0  0  0
   -0.4244    4.3914    0.0000 C   0  0  0  0  0  0  0  0  0  0  0  0
    0.9989    3.9177    0.0000 C   0  0  0  0  0  0  0  0  0  0  0  0
    1.9812    5.0513    0.0000 C   0  0  0  0  0  0  0  0  0  0  0  0
    3.4773    5.1583    0.0000 C   0  0  0  0  0  0  0  0  0  0  0  0
    4.6110    4.1761    0.0000 C   0  0  0  0  0  0  0  0  0  0  0  0
    4.7180    2.6799    0.0000 C   0  0  0  0  0  0  0  0  0  0  0  0
    3.7357    1.5462    0.0000 C   0  0  0  0  0  0  0  0  0  0  0  0
    2.2395    1.4392    0.0000 C   0  0  0  0  0  0  0  0  0  0  0  0
    2.6621    0.0000    0.0000 C   0  0  0  0  0  0  0  0  0  0  0  0
    2.2395   -1.4392    0.0000 C   0  0  0  0  0  0  0  0  0  0  0  0
    1.1059   -2.4215    0.0000 C   0  0  0  0  0  0  0  0  0  0  0  0
   -0.3789   -2.6350    0.0000 C   0  0  0  0  0  0  0  0  0  0  0  0
   -1.7433   -2.0119    0.0000 C   0  0  0  0  0  0  0  0  0  0  0  0
   -2.5543   -0.7500    0.0000 C   0  0  0  0  0  0  0  0  0  0  0  0
   -2.5543    0.7500    0.0000 N   0  0  0  0  0  0  0  0  0  0  0  0
   -1.7433    2.0119    0.0000 N   0  0  0  0  0  0  0  0  0  0  0  0
   -0.3789    2.6350    0.0000 N   0  0  0  0  0  0  0  0  0  0  0  0
    1.1059    2.4215    0.0000 N   0  0  0  0  0  0  0  0  0  0  0  0
    1.8756    3.2796    0.0000 N   0  0  0  0  0  0  0  0  0  0  0  0
    3.1117    4.1294    0.0000 C   0  0  0  0  0  0  0  0  0  0  0  0
    2.6446    5.5548    0.0000 O   0  0  0  0  0  0  0  0  0  0  0  0
   -0.7258    5.8608    0.0000 C   0  0  0  0  0  0  0  0  0  0  0  0
   -2.1490    6.3345    0.0000 C   0  0  0  0  0  0  0  0  0  0  0  0
   -4.6309    2.6803    0.0000 C   0  0  0  0  0  0  0  0  0  0  0  0
   -4.6416    1.1803    0.0000 C   0  0  0  0  0  0  0  0  0  0  0  0
  1  2  1  0
  2  3  2  0
  3  4  1  0
  4  5  2  0
  5  6  1  0
  6  7  2  0
  7  8  1  0
  8  9  2  0
  9 10  1  0
 10 11  1  0
 11 12  2  0
 12 13  1  0
 13 14  2  0
 14 15  1  0
 15 16  2  0
 16 17  1  0
 17 18  2  0
 18 19  1  0
 19 20  2  0
 20 21  1  0
 21 22  2  0
 22 23  1  0
 23 24  2  0
 24 25  1  0
 25 26  2  0
 26 27  1  0
 27 28  2  0
 28 29  1  0
 29 30  2  0
 30 31  1  0
 27 32  1  0
 32 33  1  0
 33 34  2  0
 14 35  1  0
 35 36  2  0
  5 37  1  0
 37 38  2  0
 38  2  1  0
 10  6  1  0
 36 11  1  0
 31 15  1  0
 33 18  1  0
 31 21  1  0
M  END
>  <Title>  (495) 
idAATAgen7

$$$$

     RDKit          2D

 42 47  0  0  0  0  0  0  0  0999 V2000
    3.0000    0.0000    0.0000 C   0  0  0  0  0  0  0  0  0  0  0  0
    1.5000    0.0000    0.0000 C   0  0  0  0  0  0  0  0  0  0  0  0
    0.7500   -1.2990    0.0000 C   0  0  0  0  0  0  0  0  0  0  0  0
   -0.7500   -1.2990    0.0000 C   0  0  0  0  0  0  0  0  0  0  0  0
   -1.5000    0.0000    0.0000 C   0  0  0  0  0  0  0  0  0  0  0  0
   -3.0000    0.0000    0.0000 C   0  0  0  0  0  0  0  0  0  0  0  0
   -3.7500   -1.2990    0.0000 O   0  0  0  0  0  0  0  0  0  0  0  0
   -3.7500    1.2990    0.0000 N   0  0  0  0  0  0  0  0  0  0  0  0
   -5.2500    1.2990    0.0000 C   0  0  0  0  0  0  0  0  0  0  0  0
   -6.1317    0.0855    0.0000 N   0  0  0  0  0  0  0  0  0  0  0  0
   -7.5583    0.5490    0.0000 N   0  0  0  0  0  0  0  0  0  0  0  0
   -7.5583    2.0490    0.0000 N   0  0  0  0  0  0  0  0  0  0  0  0
   -6.1317    2.5126    0.0000 N   0  0  0  0  0  0  0  0  0  0  0  0
   -5.6682    3.9391    0.0000 C   0  0  0  0  0  0  0  0  0  0  0  0
   -4.2009    4.2510    0.0000 C   0  0  0  0  0  0  0  0  0  0  0  0
   -3.7374    5.6776    0.0000 C   0  0  0  0  0  0  0  0  0  0  0  0
   -4.7411    6.7923    0.0000 C   0  0  0  0  0  0  0  0  0  0  0  0
   -4.2776    8.2189    0.0000 C   0  0  0  0  0  0  0  0  0  0  0  0
   -5.2813    9.3336    0.0000 O   0  0  0  0  0  0  0  0  0  0  0  0
   -2.8104    8.5308    0.0000 N   0  0  0  0  0  0  0  0  0  0  0  0
   -2.3468    9.9574    0.0000 C   0  0  0  0  0  0  0  0  0  0  0  0
   -3.2285   11.1709    0.0000 N   0  0  0  0  0  0  0  0  0  0  0  0
   -2.3468   12.3844    0.0000 N   0  0  0  0  0  0  0  0  0  0  0  0
   -0.9202   11.9209    0.0000 N   0  0  0  0  0  0  0  0  0  0  0  0
   -0.9202   10.4209    0.0000 N   0  0  0  0  0  0  0  0  0  0  0  0
    0.2933    9.5392    0.0000 C   0  0  0  0  0  0  0  0  0  0  0  0
    0.2933    8.0392    0.0000 N   0  0  0  0  0  0  0  0  0  0  0  0
    1.7199    7.5757    0.0000 N   0  0  0  0  0  0  0  0  0  0  0  0
    2.6015    8.7892    0.0000 N   0  0  0  0  0  0  0  0  0  0  0  0
    1.7199   10.0027    0.0000 N   0  0  0  0  0  0  0  0  0  0  0  0
    2.1834   11.4293    0.0000 C   0  0  0  0  0  0  0  0  0  0  0  0
    3.6506   11.7412    0.0000 C   0  0  0  0  0  0  0  0  0  0  0  0
    4.1141   13.1678    0.0000 C   0  0  0  0  0  0  0  0  0  0  0  0
    3.1104   14.2825    0.0000 C   0  0  0  0  0  0  0  0  0  0  0  0
    1.6432   13.9706    0.0000 C   0  0  0  0  0  0  0  0  0  0  0  0
    1.1797   12.5440    0.0000 C   0  0  0  0  0  0  0  0  0  0  0  0
   -6.2083    6.4805    0.0000 C   0  0  0  0  0  0  0  0  0  0  0  0
   -7.2120    7.5952    0.0000 O   0  0  0  0  0  0  0  0  0  0  0  0
   -6.6718    5.0539    0.0000 N   0  0  0  0  0  0  0  0  0  0  0  0
   -0.7500    1.2990    0.0000 C   0  0  0  0  0  0  0  0  0  0  0  0
   -1.5000    2.5981    0.0000 O   0  0  0  0  0  0  0  0  0  0  0  0
    0.7500    1.2990    0.0000 N   0  0  0  0  0  0  0  0  0  0  0  0
  1  2  1  0
  2  3  2  0
  3  4  1  0
  4  5  2  0
  5  6  1  0
  6  7  2  0
  6  8  1  0
  8  9  1  0
  9 10  2  0
 10 11  1  0
 11 12  2  0
 12 13  1  0
 13 14  1  0
 14 15  2  0
 15 16  1  0
 16 17  2  0
 17 18  1  0
 18 19  2  0
 18 20  1  0
 20 21  1  0
 21 22  2  0
 22 23  1  0
 23 24  2  0
 24 25  1  0
 25 26  1  0
 26 27  2  0
 27 28  1  0
 28 29  2  0
 29 30  1  0
 30 31  1  0
 31 32  2  0
 32 33  1  0
 33 34  2  0
 34 35  1  0
 35 36  2  0
 17 37  1  0
 37 38  2  0
 37 39  1  0
  5 40  1  0
 40 41  2  0
 40 42  1  0
 42  2  1  0
 13  9  1  0
 39 14  1  0
 25 21  1  0
 30 26  1  0
 36 31  1  0
M  END
>  <Title>  (496) 
idAATBgen7

$$$$

     RDKit          2D

 25 27  0  0  0  0  0  0  0  0999 V2000
    6.0000   -2.5981    0.0000 C   0  0  0  0  0  0  0  0  0  0  0  0
    5.2500   -1.2990    0.0000 C   0  0  0  0  0  0  0  0  0  0  0  0
    6.0000    0.0000    0.0000 O   0  0  0  0  0  0  0  0  0  0  0  0
    3.7500   -1.2990    0.0000 N   0  0  0  0  0  0  0  0  0  0  0  0
    3.0000    0.0000    0.0000 C   0  0  0  0  0  0  0  0  0  0  0  0
    3.7500    1.2990    0.0000 O   0  0  0  0  0  0  0  0  0  0  0  0
    1.5000    0.0000    0.0000 C   0  0  0  0  0  0  0  0  0  0  0  0
    0.7500   -1.2990    0.0000 C   0  0  0  0  0  0  0  0  0  0  0  0
   -0.7500   -1.2990    0.0000 C   0  0  0  0  0  0  0  0  0  0  0  0
   -1.5000    0.0000    0.0000 C   0  0  0  0  0  0  0  0  0  0  0  0
   -3.0000    0.0000    0.0000 C   0  0  0  0  0  0  0  0  0  0  0  0
   -3.7500    1.2990    0.0000 C   0  0  0  0  0  0  0  0  0  0  0  0
   -5.2500    1.2990    0.0000 C   0  0  0  0  0  0  0  0  0  0  0  0
   -6.0000    0.0000    0.0000 C   0  0  0  0  0  0  0  0  0  0  0  0
   -7.5000    0.0000    0.0000 C   0  0  0  0  0  0  0  0  0  0  0  0
   -8.2500    1.2990    0.0000 C   0  0  0  0  0  0  0  0  0  0  0  0
   -9.7500    1.2990    0.0000 C   0  0  0  0  0  0  0  0  0  0  0  0
  -10.5000    0.0000    0.0000 C   0  0  0  0  0  0  0  0  0  0  0  0
   -9.7500   -1.2990    0.0000 C   0  0  0  0  0  0  0  0  0  0  0  0
   -8.2500   -1.2990    0.0000 C   0  0  0  0  0  0  0  0  0  0  0  0
   -5.2500   -1.2990    0.0000 C   0  0  0  0  0  0  0  0  0  0  0  0
   -6.0000   -2.5981    0.0000 O   0  0  0  0  0  0  0  0  0  0  0  0
   -3.7500   -1.2990    0.0000 N   0  0  0  0  0  0  0  0  0  0  0  0
   -0.7500    1.2990    0.0000 C   0  0  0  0  0  0  0  0  0  0  0  0
    0.7500    1.2990    0.0000 C   0  0  0  0  0  0  0  0  0  0  0  0
  1  2  1  0
  2  3  2  0
  2  4  1  0
  4  5  1  0
  5  6  2  0
  5  7  1  0
  7  8  1  0
  8  9  2  0
  9 10  1  0
 10 11  1  0
 11 12  2  0
 12 13  1  0
 13 14  2  0
 14 15  1  0
 15 16  2  0
 16 17  1  0
 17 18  2  0
 18 19  1  0
 19 20  2  0
 14 21  1  0
 21 22  2  0
 21 23  1  0
 10 24  2  0
 24 25  1  0
 25  7  1  0
 23 11  1  0
 20 15  1  0
M  END
>  <Title>  (497) 
idAATCgen7

$$$$

     RDKit          2D

 47 54  0  0  0  0  0  0  0  0999 V2000
    3.0000    0.0000    0.0000 C   0  0  0  0  0  0  0  0  0  0  0  0
    1.5000    0.0000    0.0000 C   0  0  0  0  0  0  0  0  0  0  0  0
    0.7500   -1.2990    0.0000 C   0  0  0  0  0  0  0  0  0  0  0  0
   -0.7500   -1.2990    0.0000 C   0  0  0  0  0  0  0  0  0  0  0  0
   -1.5000    0.0000    0.0000 C   0  0  0  0  0  0  0  0  0  0  0  0
   -3.0000    0.0000    0.0000 C   0  0  0  0  0  0  0  0  0  0  0  0
   -3.8817   -1.2135    0.0000 N   0  0  0  0  0  0  0  0  0  0  0  0
   -5.3083   -0.7500    0.0000 N   0  0  0  0  0  0  0  0  0  0  0  0
   -5.3083    0.7500    0.0000 N   0  0  0  0  0  0  0  0  0  0  0  0
   -3.8817    1.2135    0.0000 N   0  0  0  0  0  0  0  0  0  0  0  0
   -3.4182    2.6401    0.0000 C   0  0  0  0  0  0  0  0  0  0  0  0
   -4.2998    3.8536    0.0000 C   0  0  0  0  0  0  0  0  0  0  0  0
   -3.4182    5.0672    0.0000 N   0  0  0  0  0  0  0  0  0  0  0  0
   -1.9916    4.6036    0.0000 N   0  0  0  0  0  0  0  0  0  0  0  0
   -1.9916    3.1036    0.0000 N   0  0  0  0  0  0  0  0  0  0  0  0
   -0.7780    2.2220    0.0000 C   0  0  0  0  0  0  0  0  0  0  0  0
   -0.9348    0.7302    0.0000 C   0  0  0  0  0  0  0  0  0  0  0  0
    0.2787   -0.1515    0.0000 C   0  0  0  0  0  0  0  0  0  0  0  0
    1.6490    0.4586    0.0000 C   0  0  0  0  0  0  0  0  0  0  0  0
    1.8058    1.9504    0.0000 C   0  0  0  0  0  0  0  0  0  0  0  0
    0.5923    2.8321    0.0000 C   0  0  0  0  0  0  0  0  0  0  0  0
    0.7491    4.3238    0.0000 N   0  0  0  0  0  0  0  0  0  0  0  0
    2.1194    4.9340    0.0000 N   0  0  0  0  0  0  0  0  0  0  0  0
    2.2762    6.4257    0.0000 N   0  0  0  0  0  0  0  0  0  0  0  0
    1.0627    7.3074    0.0000 N   0  0  0  0  0  0  0  0  0  0  0  0
   -0.3077    6.6973    0.0000 N   0  0  0  0  0  0  0  0  0  0  0  0
   -0.4645    5.2055    0.0000 N   0  0  0  0  0  0  0  0  0  0  0  0
   -1.8348    4.5954    0.0000 C   0  0  0  0  0  0  0  0  0  0  0  0
   -3.0483    5.4771    0.0000 C   0  0  0  0  0  0  0  0  0  0  0  0
   -4.4186    4.8670    0.0000 C   0  0  0  0  0  0  0  0  0  0  0  0
   -4.5754    3.3752    0.0000 C   0  0  0  0  0  0  0  0  0  0  0  0
   -5.9457    2.7651    0.0000 C   0  0  0  0  0  0  0  0  0  0  0  0
   -7.1593    3.6468    0.0000 C   0  0  0  0  0  0  0  0  0  0  0  0
   -8.5296    3.0367    0.0000 C   0  0  0  0  0  0  0  0  0  0  0  0
   -8.6864    1.5449    0.0000 C   0  0  0  0  0  0  0  0  0  0  0  0
  -10.0567    0.9348    0.0000 C   0  0  0  0  0  0  0  0  0  0  0  0
  -11.2702    1.8165    0.0000 C   0  0  0  0  0  0  0  0  0  0  0  0
  -12.6405    1.2064    0.0000 C   0  0  0  0  0  0  0  0  0  0  0  0
  -12.7973   -0.2854    0.0000 C   0  0  0  0  0  0  0  0  0  0  0  0
  -11.5838   -1.1671    0.0000 C   0  0  0  0  0  0  0  0  0  0  0  0
  -10.2135   -0.5570    0.0000 C   0  0  0  0  0  0  0  0  0  0  0  0
   -7.4728    0.6632    0.0000 C   0  0  0  0  0  0  0  0  0  0  0  0
   -6.1025    1.2733    0.0000 C   0  0  0  0  0  0  0  0  0  0  0  0
   -3.3619    2.4935    0.0000 C   0  0  0  0  0  0  0  0  0  0  0  0
   -1.9916    3.1036    0.0000 C   0  0  0  0  0  0  0  0  0  0  0  0
   -0.7500    1.2990    0.0000 C   0  0  0  0  0  0  0  0  0  0  0  0
    0.7500    1.2990    0.0000 C   0  0  0  0  0  0  0  0  0  0  0  0
  1  2  1  0
  2  3  2  0
  3  4  1  0
  4  5  2  0
  5  6  1  0
  6  7  2  0
  7  8  1  0
  8  9  2  0
  9 10  1  0
 10 11  1  0
 11 12  2  0
 12 13  1  0
 13 14  2  0
 14 15  1  0
 15 16  1  0
 16 17  2  0
 17 18  1  0
 18 19  2  0
 19 20  1  0
 20 21  2  0
 21 22  1  0
 22 23  1  0
 23 24  2  0
 24 25  1  0
 25 26  2  0
 26 27  1  0
 27 28  1  0
 28 29  2  0
 29 30  1  0
 30 31  2  0
 31 32  1  0
 32 33  2  0
 33 34  1  0
 34 35  2  0
 35 36  1  0
 36 37  2  0
 37 38  1  0
 38 39  2  0
 39 40  1  0
 40 41  2  0
 35 42  1  0
 42 43  2  0
 31 44  1  0
 44 45  2  0
  5 46  1  0
 46 47  2  0
 47  2  1  0
 10  6  1  0
 15 11  1  0
 21 16  1  0
 27 22  1  0
 45 28  1  0
 43 32  1  0
 41 36  1  0
M  END
>  <Title>  (498) 
idAATDgen7

$$$$

     RDKit          2D

 39 44  0  0  0  0  0  0  0  0999 V2000
    3.0000    0.0000    0.0000 C   0  0  0  0  0  0  0  0  0  0  0  0
    1.5000    0.0000    0.0000 C   0  0  0  0  0  0  0  0  0  0  0  0
    0.7500   -1.2990    0.0000 C   0  0  0  0  0  0  0  0  0  0  0  0
   -0.7500   -1.2990    0.0000 C   0  0  0  0  0  0  0  0  0  0  0  0
   -1.5000    0.0000    0.0000 C   0  0  0  0  0  0  0  0  0  0  0  0
   -3.0000    0.0000    0.0000 C   0  0  0  0  0  0  0  0  0  0  0  0
   -3.7500   -1.2990    0.0000 O   0  0  0  0  0  0  0  0  0  0  0  0
   -3.7500    1.2990    0.0000 N   0  0  0  0  0  0  0  0  0  0  0  0
   -5.2500    1.2990    0.0000 C   0  0  0  0  0  0  0  0  0  0  0  0
   -6.1317    0.0855    0.0000 N   0  0  0  0  0  0  0  0  0  0  0  0
   -7.5583    0.5490    0.0000 N   0  0  0  0  0  0  0  0  0  0  0  0
   -7.5583    2.0490    0.0000 N   0  0  0  0  0  0  0  0  0  0  0  0
   -6.1317    2.5126    0.0000 N   0  0  0  0  0  0  0  0  0  0  0  0
   -5.6682    3.9391    0.0000 C   0  0  0  0  0  0  0  0  0  0  0  0
   -4.2009    4.2510    0.0000 C   0  0  0  0  0  0  0  0  0  0  0  0
   -3.7374    5.6776    0.0000 C   0  0  0  0  0  0  0  0  0  0  0  0
   -4.7411    6.7923    0.0000 C   0  0  0  0  0  0  0  0  0  0  0  0
   -6.2083    6.4805    0.0000 C   0  0  0  0  0  0  0  0  0  0  0  0
   -6.6718    5.0539    0.0000 C   0  0  0  0  0  0  0  0  0  0  0  0
   -8.1391    4.7420    0.0000 C   0  0  0  0  0  0  0  0  0  0  0  0
   -8.7492    3.3717    0.0000 C   0  0  0  0  0  0  0  0  0  0  0  0
  -10.2410    3.5285    0.0000 C   0  0  0  0  0  0  0  0  0  0  0  0
  -10.5528    4.9957    0.0000 C   0  0  0  0  0  0  0  0  0  0  0  0
  -11.9231    5.6058    0.0000 C   0  0  0  0  0  0  0  0  0  0  0  0
  -13.2222    4.8558    0.0000 N   0  0  0  0  0  0  0  0  0  0  0  0
  -14.3369    5.8595    0.0000 N   0  0  0  0  0  0  0  0  0  0  0  0
  -13.7268    7.2298    0.0000 N   0  0  0  0  0  0  0  0  0  0  0  0
  -12.2350    7.0730    0.0000 N   0  0  0  0  0  0  0  0  0  0  0  0
  -11.2313    8.1877    0.0000 C   0  0  0  0  0  0  0  0  0  0  0  0
   -9.7641    7.8759    0.0000 C   0  0  0  0  0  0  0  0  0  0  0  0
   -8.7604    8.9906    0.0000 C   0  0  0  0  0  0  0  0  0  0  0  0
   -9.2239   10.4172    0.0000 C   0  0  0  0  0  0  0  0  0  0  0  0
  -10.6911   10.7290    0.0000 C   0  0  0  0  0  0  0  0  0  0  0  0
  -11.6948    9.6143    0.0000 C   0  0  0  0  0  0  0  0  0  0  0  0
   -9.2538    5.7457    0.0000 C   0  0  0  0  0  0  0  0  0  0  0  0
   -9.0970    7.2375    0.0000 O   0  0  0  0  0  0  0  0  0  0  0  0
   -0.7500    1.2990    0.0000 N   0  0  0  0  0  0  0  0  0  0  0  0
    0.7500    1.2990    0.0000 C   0  0  0  0  0  0  0  0  0  0  0  0
    1.5000    2.5981    0.0000 O   0  0  0  0  0  0  0  0  0  0  0  0
  1  2  1  0
  2  3  2  0
  3  4  1  0
  4  5  2  0
  5  6  1  0
  6  7  2  0
  6  8  1  0
  8  9  1  0
  9 10  2  0
 10 11  1  0
 11 12  2  0
 12 13  1  0
 13 14  1  0
 14 15  2  0
 15 16  1  0
 16 17  2  0
 17 18  1  0
 18 19  2  0
 19 20  1  0
 20 21  2  0
 21 22  1  0
 22 23  2  0
 23 24  1  0
 24 25  2  0
 25 26  1  0
 26 27  2  0
 27 28  1  0
 28 29  1  0
 29 30  2  0
 30 31  1  0
 31 32  2  0
 32 33  1  0
 33 34  2  0
 23 35  1  0
 35 36  2  0
  5 37  1  0
 37 38  1  0
 38 39  2  0
 38  2  1  0
 13  9  1  0
 19 14  1  0
 35 20  1  0
 28 24  1  0
 34 29  1  0
M  END
>  <Title>  (499) 
idAATEgen7

$$$$

     RDKit          2D

 44 50  0  0  0  0  0  0  0  0999 V2000
    3.0000    0.0000    0.0000 C   0  0  0  0  0  0  0  0  0  0  0  0
    1.5000    0.0000    0.0000 C   0  0  0  0  0  0  0  0  0  0  0  0
    0.7500   -1.2990    0.0000 C   0  0  0  0  0  0  0  0  0  0  0  0
   -0.7500   -1.2990    0.0000 C   0  0  0  0  0  0  0  0  0  0  0  0
   -1.5000    0.0000    0.0000 C   0  0  0  0  0  0  0  0  0  0  0  0
   -3.0000    0.0000    0.0000 C   0  0  0  0  0  0  0  0  0  0  0  0
   -3.8817   -1.2135    0.0000 N   0  0  0  0  0  0  0  0  0  0  0  0
   -5.3083   -0.7500    0.0000 N   0  0  0  0  0  0  0  0  0  0  0  0
   -5.3083    0.7500    0.0000 N   0  0  0  0  0  0  0  0  0  0  0  0
   -3.8817    1.2135    0.0000 N   0  0  0  0  0  0  0  0  0  0  0  0
   -3.4182    2.6401    0.0000 C   0  0  0  0  0  0  0  0  0  0  0  0
   -1.9509    2.9520    0.0000 C   0  0  0  0  0  0  0  0  0  0  0  0
   -1.4874    4.3786    0.0000 C   0  0  0  0  0  0  0  0  0  0  0  0
   -2.4911    5.4933    0.0000 C   0  0  0  0  0  0  0  0  0  0  0  0
   -2.0276    6.9199    0.0000 C   0  0  0  0  0  0  0  0  0  0  0  0
   -3.0313    8.0346    0.0000 O   0  0  0  0  0  0  0  0  0  0  0  0
   -0.5604    7.2317    0.0000 N   0  0  0  0  0  0  0  0  0  0  0  0
   -0.0968    8.6583    0.0000 C   0  0  0  0  0  0  0  0  0  0  0  0
   -0.9785    9.8718    0.0000 N   0  0  0  0  0  0  0  0  0  0  0  0
   -0.0968   11.0854    0.0000 N   0  0  0  0  0  0  0  0  0  0  0  0
    1.3298   10.6218    0.0000 N   0  0  0  0  0  0  0  0  0  0  0  0
    1.3298    9.1218    0.0000 N   0  0  0  0  0  0  0  0  0  0  0  0
    2.5433    8.2402    0.0000 C   0  0  0  0  0  0  0  0  0  0  0  0
    2.3865    6.7484    0.0000 C   0  0  0  0  0  0  0  0  0  0  0  0
    3.6000    5.8667    0.0000 C   0  0  0  0  0  0  0  0  0  0  0  0
    4.9703    6.4768    0.0000 C   0  0  0  0  0  0  0  0  0  0  0  0
    5.1271    7.9686    0.0000 C   0  0  0  0  0  0  0  0  0  0  0  0
    3.9136    8.8503    0.0000 C   0  0  0  0  0  0  0  0  0  0  0  0
   -3.9583    5.1814    0.0000 C   0  0  0  0  0  0  0  0  0  0  0  0
   -4.4218    3.7548    0.0000 C   0  0  0  0  0  0  0  0  0  0  0  0
   -5.8891    3.4430    0.0000 C   0  0  0  0  0  0  0  0  0  0  0  0
   -6.4992    2.0726    0.0000 C   0  0  0  0  0  0  0  0  0  0  0  0
   -7.9910    2.2294    0.0000 C   0  0  0  0  0  0  0  0  0  0  0  0
   -8.3028    3.6967    0.0000 C   0  0  0  0  0  0  0  0  0  0  0  0
   -9.6731    4.3068    0.0000 C   0  0  0  0  0  0  0  0  0  0  0  0
  -10.9722    3.5568    0.0000 C   0  0  0  0  0  0  0  0  0  0  0  0
  -12.0869    4.5605    0.0000 C   0  0  0  0  0  0  0  0  0  0  0  0
  -11.4768    5.9308    0.0000 C   0  0  0  0  0  0  0  0  0  0  0  0
  -12.2268    7.2298    0.0000 F   0  0  0  0  0  0  0  0  0  0  0  0
   -9.9850    5.7740    0.0000 C   0  0  0  0  0  0  0  0  0  0  0  0
   -8.9813    6.8887    0.0000 O   0  0  0  0  0  0  0  0  0  0  0  0
   -7.0038    4.4467    0.0000 N   0  0  0  0  0  0  0  0  0  0  0  0
   -0.7500    1.2990    0.0000 N   0  0  0  0  0  0  0  0  0  0  0  0
    0.7500    1.2990    0.0000 N   0  0  0  0  0  0  0  0  0  0  0  0
  1  2  1  0
  2  3  2  0
  3  4  1  0
  4  5  2  0
  5  6  1  0
  6  7  2  0
  7  8  1  0
  8  9  2  0
  9 10  1  0
 10 11  1  0
 11 12  2  0
 12 13  1  0
 13 14  2  0
 14 15  1  0
 15 16  2  0
 15 17  1  0
 17 18  1  0
 18 19  2  0
 19 20  1  0
 20 21  2  0
 21 22  1  0
 22 23  1  0
 23 24  2  0
 24 25  1  0
 25 26  2  0
 26 27  1  0
 27 28  2  0
 14 29  1  0
 29 30  2  0
 30 31  1  0
 31 32  2  0
 32 33  1  0
 33 34  2  0
 34 35  1  0
 35 36  2  0
 36 37  1  0
 37 38  2  0
 38 39  1  0
 38 40  1  0
 40 41  2  0
 34 42  1  0
  5 43  1  0
 43 44  2  0
 44  2  1  0
 10  6  1  0
 30 11  1  0
 42 31  1  0
 22 18  1  0
 28 23  1  0
 40 35  1  0
M  END
>  <Title>  (500) 
idAATFgen7

$$$$

     RDKit          2D

 35 39  0  0  0  0  0  0  0  0999 V2000
    3.7500    1.2990    0.0000 C   0  0  0  0  0  0  0  0  0  0  0  0
    3.0000    0.0000    0.0000 O   0  0  0  0  0  0  0  0  0  0  0  0
    1.5000    0.0000    0.0000 C   0  0  0  0  0  0  0  0  0  0  0  0
    0.7500    1.2990    0.0000 C   0  0  0  0  0  0  0  0  0  0  0  0
   -0.7500    1.2990    0.0000 C   0  0  0  0  0  0  0  0  0  0  0  0
   -1.5000    0.0000    0.0000 C   0  0  0  0  0  0  0  0  0  0  0  0
   -3.0000    0.0000    0.0000 C   0  0  0  0  0  0  0  0  0  0  0  0
   -3.8817   -1.2135    0.0000 N   0  0  0  0  0  0  0  0  0  0  0  0
   -5.3083   -0.7500    0.0000 N   0  0  0  0  0  0  0  0  0  0  0  0
   -5.3083    0.7500    0.0000 N   0  0  0  0  0  0  0  0  0  0  0  0
   -3.8817    1.2135    0.0000 N   0  0  0  0  0  0  0  0  0  0  0  0
   -3.4182    2.6401    0.0000 C   0  0  0  0  0  0  0  0  0  0  0  0
   -1.9509    2.9520    0.0000 C   0  0  0  0  0  0  0  0  0  0  0  0
   -1.4874    4.3786    0.0000 C   0  0  0  0  0  0  0  0  0  0  0  0
   -2.4911    5.4933    0.0000 C   0  0  0  0  0  0  0  0  0  0  0  0
   -2.0276    6.9199    0.0000 C   0  0  0  0  0  0  0  0  0  0  0  0
   -0.5604    7.2317    0.0000 C   0  0  0  0  0  0  0  0  0  0  0  0
   -0.0968    8.6583    0.0000 C   0  0  0  0  0  0  0  0  0  0  0  0
   -1.1005    9.7730    0.0000 C   0  0  0  0  0  0  0  0  0  0  0  0
   -0.6370   11.1996    0.0000 C   0  0  0  0  0  0  0  0  0  0  0  0
   -1.6407   12.3143    0.0000 O   0  0  0  0  0  0  0  0  0  0  0  0
    0.8302   11.5115    0.0000 N   0  0  0  0  0  0  0  0  0  0  0  0
    1.2937   12.9381    0.0000 C   0  0  0  0  0  0  0  0  0  0  0  0
    2.7610   13.2499    0.0000 C   0  0  0  0  0  0  0  0  0  0  0  0
    3.2245   14.6765    0.0000 C   0  0  0  0  0  0  0  0  0  0  0  0
    2.2208   15.7912    0.0000 C   0  0  0  0  0  0  0  0  0  0  0  0
    0.7536   15.4794    0.0000 C   0  0  0  0  0  0  0  0  0  0  0  0
    0.2901   14.0528    0.0000 C   0  0  0  0  0  0  0  0  0  0  0  0
   -2.5677    9.4612    0.0000 C   0  0  0  0  0  0  0  0  0  0  0  0
   -3.0313    8.0346    0.0000 C   0  0  0  0  0  0  0  0  0  0  0  0
   -3.9583    5.1814    0.0000 C   0  0  0  0  0  0  0  0  0  0  0  0
   -4.4218    3.7548    0.0000 C   0  0  0  0  0  0  0  0  0  0  0  0
   -0.7500   -1.2990    0.0000 C   0  0  0  0  0  0  0  0  0  0  0  0
   -1.5000   -2.5981    0.0000 O   0  0  0  0  0  0  0  0  0  0  0  0
    0.7500   -1.2990    0.0000 N   0  0  0  0  0  0  0  0  0  0  0  0
  1  2  1  0
  2  3  1  0
  3  4  2  0
  4  5  1  0
  5  6  2  0
  6  7  1  0
  7  8  2  0
  8  9  1  0
  9 10  2  0
 10 11  1  0
 11 12  1  0
 12 13  2  0
 13 14  1  0
 14 15  2  0
 15 16  1  0
 16 17  2  0
 17 18  1  0
 18 19  2  0
 19 20  1  0
 20 21  2  0
 20 22  1  0
 22 23  1  0
 23 24  2  0
 24 25  1  0
 25 26  2  0
 26 27  1  0
 27 28  2  0
 19 29  1  0
 29 30  2  0
 15 31  1  0
 31 32  2  0
  6 33  1  0
 33 34  2  0
 33 35  1  0
 35  3  1  0
 11  7  1  0
 32 12  1  0
 30 16  1  0
 28 23  1  0
M  END
>  <Title>  (501) 
idAATGgen7

$$$$

     RDKit          2D

 16 17  0  0  0  0  0  0  0  0999 V2000
    3.0000    0.0000    0.0000 C   0  0  0  0  0  0  0  0  0  0  0  0
    1.5000    0.0000    0.0000 C   0  0  0  0  0  0  0  0  0  0  0  0
    0.7500   -1.2990    0.0000 C   0  0  0  0  0  0  0  0  0  0  0  0
   -0.7500   -1.2990    0.0000 C   0  0  0  0  0  0  0  0  0  0  0  0
   -1.5000    0.0000    0.0000 C   0  0  0  0  0  0  0  0  0  0  0  0
   -3.0000    0.0000    0.0000 N   0  0  0  0  0  0  0  0  0  0  0  0
   -3.8817   -1.2135    0.0000 C   0  0  0  0  0  0  0  0  0  0  0  0
   -3.4182   -2.6401    0.0000 O   0  0  0  0  0  0  0  0  0  0  0  0
   -5.3083   -0.7500    0.0000 C   0  0  0  0  0  0  0  0  0  0  0  0
   -5.3083    0.7500    0.0000 C   0  0  0  0  0  0  0  0  0  0  0  0
   -6.5218    1.6317    0.0000 C   0  0  0  0  0  0  0  0  0  0  0  0
   -3.8817    1.2135    0.0000 C   0  0  0  0  0  0  0  0  0  0  0  0
   -3.4182    2.6401    0.0000 O   0  0  0  0  0  0  0  0  0  0  0  0
   -0.7500    1.2990    0.0000 C   0  0  0  0  0  0  0  0  0  0  0  0
   -1.5000    2.5981    0.0000 O   0  0  0  0  0  0  0  0  0  0  0  0
    0.7500    1.2990    0.0000 N   0  0  0  0  0  0  0  0  0  0  0  0
  1  2  1  0
  2  3  2  0
  3  4  1  0
  4  5  2  0
  5  6  1  0
  6  7  1  0
  7  8  2  0
  7  9  1  0
  9 10  1  0
 10 11  1  0
 10 12  1  0
 12 13  2  0
  5 14  1  0
 14 15  2  0
 14 16  1  0
 16  2  1  0
 12  6  1  0
M  END
>  <Title>  (502) 
idAATHgen7

$$$$

     RDKit          2D

 39 43  0  0  0  0  0  0  0  0999 V2000
    3.7500   -1.2990    0.0000 C   0  0  0  0  0  0  0  0  0  0  0  0
    3.0000    0.0000    0.0000 O   0  0  0  0  0  0  0  0  0  0  0  0
    1.5000    0.0000    0.0000 C   0  0  0  0  0  0  0  0  0  0  0  0
    0.7500   -1.2990    0.0000 C   0  0  0  0  0  0  0  0  0  0  0  0
   -0.7500   -1.2990    0.0000 C   0  0  0  0  0  0  0  0  0  0  0  0
   -1.5000    0.0000    0.0000 C   0  0  0  0  0  0  0  0  0  0  0  0
   -3.0000    0.0000    0.0000 C   0  0  0  0  0  0  0  0  0  0  0  0
   -3.7500   -1.2990    0.0000 O   0  0  0  0  0  0  0  0  0  0  0  0
   -3.7500    1.2990    0.0000 N   0  0  0  0  0  0  0  0  0  0  0  0
   -5.2500    1.2990    0.0000 C   0  0  0  0  0  0  0  0  0  0  0  0
   -6.1317    0.0855    0.0000 N   0  0  0  0  0  0  0  0  0  0  0  0
   -7.5583    0.5490    0.0000 N   0  0  0  0  0  0  0  0  0  0  0  0
   -7.5583    2.0490    0.0000 N   0  0  0  0  0  0  0  0  0  0  0  0
   -6.1317    2.5126    0.0000 N   0  0  0  0  0  0  0  0  0  0  0  0
   -5.6682    3.9391    0.0000 C   0  0  0  0  0  0  0  0  0  0  0  0
   -6.5498    5.1527    0.0000 C   0  0  0  0  0  0  0  0  0  0  0  0
   -5.6682    6.3662    0.0000 C   0  0  0  0  0  0  0  0  0  0  0  0
   -4.2416    5.9027    0.0000 C   0  0  0  0  0  0  0  0  0  0  0  0
   -3.0280    6.7844    0.0000 C   0  0  0  0  0  0  0  0  0  0  0  0
   -1.6015    6.3208    0.0000 N   0  0  0  0  0  0  0  0  0  0  0  0
   -0.7198    7.5344    0.0000 N   0  0  0  0  0  0  0  0  0  0  0  0
   -1.6015    8.7479    0.0000 N   0  0  0  0  0  0  0  0  0  0  0  0
   -3.0280    8.2844    0.0000 N   0  0  0  0  0  0  0  0  0  0  0  0
   -4.2416    9.1660    0.0000 C   0  0  0  0  0  0  0  0  0  0  0  0
   -5.6119    8.5559    0.0000 C   0  0  0  0  0  0  0  0  0  0  0  0
   -6.8254    9.4376    0.0000 C   0  0  0  0  0  0  0  0  0  0  0  0
   -6.6686   10.9294    0.0000 C   0  0  0  0  0  0  0  0  0  0  0  0
   -7.8821   11.8111    0.0000 C   0  0  0  0  0  0  0  0  0  0  0  0
   -9.2525   11.2010    0.0000 O   0  0  0  0  0  0  0  0  0  0  0  0
   -7.7254   13.3028    0.0000 N   0  0  0  0  0  0  0  0  0  0  0  0
   -8.9389   14.1845    0.0000 O   0  0  0  0  0  0  0  0  0  0  0  0
   -5.2983   11.5395    0.0000 N   0  0  0  0  0  0  0  0  0  0  0  0
   -4.0848   10.6578    0.0000 C   0  0  0  0  0  0  0  0  0  0  0  0
   -2.7145   11.2679    0.0000 O   0  0  0  0  0  0  0  0  0  0  0  0
   -4.2416    4.4027    0.0000 C   0  0  0  0  0  0  0  0  0  0  0  0
   -3.0280    3.5210    0.0000 O   0  0  0  0  0  0  0  0  0  0  0  0
   -0.7500    1.2990    0.0000 C   0  0  0  0  0  0  0  0  0  0  0  0
   -1.5000    2.5981    0.0000 O   0  0  0  0  0  0  0  0  0  0  0  0
    0.7500    1.2990    0.0000 N   0  0  0  0  0  0  0  0  0  0  0  0
  1  2  1  0
  2  3  1  0
  3  4  2  0
  4  5  1  0
  5  6  2  0
  6  7  1  0
  7  8  2  0
  7  9  1  0
  9 10  1  0
 10 11  2  0
 11 12  1  0
 12 13  2  0
 13 14  1  0
 14 15  1  0
 15 16  2  0
 16 17  1  0
 17 18  2  0
 18 19  1  0
 19 20  2  0
 20 21  1  0
 21 22  2  0
 22 23  1  0
 23 24  1  0
 24 25  2  0
 25 26  1  0
 26 27  2  0
 27 28  1  0
 28 29  2  0
 28 30  1  0
 30 31  1  0
 27 32  1  0
 32 33  1  0
 33 34  2  0
 18 35  1  0
 35 36  2  0
  6 37  1  0
 37 38  2  0
 37 39  1  0
 39  3  1  0
 14 10  1  0
 35 15  1  0
 23 19  1  0
 33 24  1  0
M  END
>  <Title>  (503) 
idAATIgen7

$$$$

     RDKit          2D

 39 44  0  0  0  0  0  0  0  0999 V2000
    3.0000    0.0000    0.0000 C   0  0  0  0  0  0  0  0  0  0  0  0
    1.5000    0.0000    0.0000 C   0  0  0  0  0  0  0  0  0  0  0  0
    0.7500   -1.2990    0.0000 C   0  0  0  0  0  0  0  0  0  0  0  0
   -0.7500   -1.2990    0.0000 C   0  0  0  0  0  0  0  0  0  0  0  0
   -1.5000    0.0000    0.0000 C   0  0  0  0  0  0  0  0  0  0  0  0
   -3.0000    0.0000    0.0000 C   0  0  0  0  0  0  0  0  0  0  0  0
   -3.7500   -1.2990    0.0000 O   0  0  0  0  0  0  0  0  0  0  0  0
   -3.7500    1.2990    0.0000 N   0  0  0  0  0  0  0  0  0  0  0  0
   -5.2500    1.2990    0.0000 C   0  0  0  0  0  0  0  0  0  0  0  0
   -6.1317    0.0855    0.0000 N   0  0  0  0  0  0  0  0  0  0  0  0
   -7.5583    0.5490    0.0000 C   0  0  0  0  0  0  0  0  0  0  0  0
   -7.5583    2.0490    0.0000 N   0  0  0  0  0  0  0  0  0  0  0  0
   -6.1317    2.5126    0.0000 N   0  0  0  0  0  0  0  0  0  0  0  0
   -5.6682    3.9391    0.0000 C   0  0  0  0  0  0  0  0  0  0  0  0
   -4.2009    4.2510    0.0000 C   0  0  0  0  0  0  0  0  0  0  0  0
   -3.7374    5.6776    0.0000 C   0  0  0  0  0  0  0  0  0  0  0  0
   -4.7411    6.7923    0.0000 C   0  0  0  0  0  0  0  0  0  0  0  0
   -4.2776    8.2189    0.0000 C   0  0  0  0  0  0  0  0  0  0  0  0
   -2.8104    8.5308    0.0000 C   0  0  0  0  0  0  0  0  0  0  0  0
   -2.3468    9.9574    0.0000 C   0  0  0  0  0  0  0  0  0  0  0  0
   -3.3505   11.0721    0.0000 C   0  0  0  0  0  0  0  0  0  0  0  0
   -2.8870   12.4987    0.0000 C   0  0  0  0  0  0  0  0  0  0  0  0
   -1.4198   12.8105    0.0000 C   0  0  0  0  0  0  0  0  0  0  0  0
   -0.9563   14.2371    0.0000 C   0  0  0  0  0  0  0  0  0  0  0  0
   -1.9599   15.3518    0.0000 C   0  0  0  0  0  0  0  0  0  0  0  0
   -1.4964   16.7784    0.0000 C   0  0  0  0  0  0  0  0  0  0  0  0
   -0.0292   17.0903    0.0000 C   0  0  0  0  0  0  0  0  0  0  0  0
    0.4343   18.5169    0.0000 C   0  0  0  0  0  0  0  0  0  0  0  0
   -0.5694   19.6316    0.0000 C   0  0  0  0  0  0  0  0  0  0  0  0
   -2.0366   19.3197    0.0000 C   0  0  0  0  0  0  0  0  0  0  0  0
   -2.5001   17.8931    0.0000 C   0  0  0  0  0  0  0  0  0  0  0  0
   -3.4272   15.0400    0.0000 C   0  0  0  0  0  0  0  0  0  0  0  0
   -3.8907   13.6134    0.0000 C   0  0  0  0  0  0  0  0  0  0  0  0
   -4.8177   10.7602    0.0000 C   0  0  0  0  0  0  0  0  0  0  0  0
   -5.2813    9.3336    0.0000 C   0  0  0  0  0  0  0  0  0  0  0  0
   -6.2083    6.4805    0.0000 C   0  0  0  0  0  0  0  0  0  0  0  0
   -6.6718    5.0539    0.0000 C   0  0  0  0  0  0  0  0  0  0  0  0
   -0.7500    1.2990    0.0000 C   0  0  0  0  0  0  0  0  0  0  0  0
    0.7500    1.2990    0.0000 C   0  0  0  0  0  0  0  0  0  0  0  0
  1  2  1  0
  2  3  2  0
  3  4  1  0
  4  5  2  0
  5  6  1  0
  6  7  2  0
  6  8  1  0
  8  9  1  0
  9 10  2  0
 10 11  1  0
 11 12  2  0
 12 13  1  0
 13 14  1  0
 14 15  2  0
 15 16  1  0
 16 17  2  0
 17 18  1  0
 18 19  2  0
 19 20  1  0
 20 21  2  0
 21 22  1  0
 22 23  2  0
 23 24  1  0
 24 25  2  0
 25 26  1  0
 26 27  2  0
 27 28  1  0
 28 29  2  0
 29 30  1  0
 30 31  2  0
 25 32  1  0
 32 33  2  0
 21 34  1  0
 34 35  2  0
 17 36  1  0
 36 37  2  0
  5 38  1  0
 38 39  1  0
 39  2  1  0
 13  9  1  0
 37 14  1  0
 35 18  1  0
 33 22  1  0
 31 26  1  0
M  END
>  <Title>  (504) 
idAATJgen7

$$$$

     RDKit          2D

 42 47  0  0  0  0  0  0  0  0999 V2000
   -0.9677  -12.4790    0.0000 C   0  0  0  0  0  0  0  0  0  0  0  0
   -2.2196  -11.6526    0.0000 C   0  0  0  0  0  0  0  0  0  0  0  0
   -2.1299  -10.1553    0.0000 C   0  0  0  0  0  0  0  0  0  0  0  0
   -3.3817   -9.3290    0.0000 C   0  0  0  0  0  0  0  0  0  0  0  0
   -4.7233  -10.0000    0.0000 C   0  0  0  0  0  0  0  0  0  0  0  0
   -5.9751   -9.1736    0.0000 C   0  0  0  0  0  0  0  0  0  0  0  0
   -7.3795   -9.7007    0.0000 N   0  0  0  0  0  0  0  0  0  0  0  0
   -8.3147   -8.5279    0.0000 N   0  0  0  0  0  0  0  0  0  0  0  0
   -7.4884   -7.2761    0.0000 N   0  0  0  0  0  0  0  0  0  0  0  0
   -6.0424   -7.6751    0.0000 N   0  0  0  0  0  0  0  0  0  0  0  0
   -4.8697   -6.7399    0.0000 C   0  0  0  0  0  0  0  0  0  0  0  0
   -3.4734   -7.2879    0.0000 C   0  0  0  0  0  0  0  0  0  0  0  0
   -2.3006   -6.3527    0.0000 C   0  0  0  0  0  0  0  0  0  0  0  0
   -2.5242   -4.8694    0.0000 C   0  0  0  0  0  0  0  0  0  0  0  0
   -1.3515   -3.9342    0.0000 C   0  0  0  0  0  0  0  0  0  0  0  0
   -0.0000   -4.5850    0.0000 C   0  0  0  0  0  0  0  0  0  0  0  0
    1.3515   -3.9342    0.0000 C   0  0  0  0  0  0  0  0  0  0  0  0
    1.6852   -2.4718    0.0000 C   0  0  0  0  0  0  0  0  0  0  0  0
    3.1476   -2.1380    0.0000 C   0  0  0  0  0  0  0  0  0  0  0  0
    3.5898   -0.7046    0.0000 O   0  0  0  0  0  0  0  0  0  0  0  0
    4.1679   -3.2376    0.0000 N   0  0  0  0  0  0  0  0  0  0  0  0
    5.6303   -2.9038    0.0000 C   0  0  0  0  0  0  0  0  0  0  0  0
    6.0724   -1.4704    0.0000 O   0  0  0  0  0  0  0  0  0  0  0  0
    6.6505   -4.0034    0.0000 C   0  0  0  0  0  0  0  0  0  0  0  0
    6.2084   -5.4367    0.0000 C   0  0  0  0  0  0  0  0  0  0  0  0
    7.2287   -6.5363    0.0000 C   0  0  0  0  0  0  0  0  0  0  0  0
    8.6911   -6.2025    0.0000 C   0  0  0  0  0  0  0  0  0  0  0  0
    9.1332   -4.7692    0.0000 C   0  0  0  0  0  0  0  0  0  0  0  0
    8.1129   -3.6696    0.0000 C   0  0  0  0  0  0  0  0  0  0  0  0
    0.7500   -1.2990    0.0000 C   0  0  0  0  0  0  0  0  0  0  0  0
    1.5000    0.0000    0.0000 N   0  0  0  0  0  0  0  0  0  0  0  0
    0.7500    1.2990    0.0000 N   0  0  0  0  0  0  0  0  0  0  0  0
   -0.7500    1.2990    0.0000 N   0  0  0  0  0  0  0  0  0  0  0  0
   -1.5000    0.0000    0.0000 N   0  0  0  0  0  0  0  0  0  0  0  0
   -0.7500   -1.2990    0.0000 C   0  0  0  0  0  0  0  0  0  0  0  0
   -1.6852   -2.4718    0.0000 C   0  0  0  0  0  0  0  0  0  0  0  0
   -3.1476   -2.1380    0.0000 O   0  0  0  0  0  0  0  0  0  0  0  0
   -3.9205   -4.3214    0.0000 N   0  0  0  0  0  0  0  0  0  0  0  0
   -5.0933   -5.2566    0.0000 N   0  0  0  0  0  0  0  0  0  0  0  0
   -4.8130  -11.4973    0.0000 C   0  0  0  0  0  0  0  0  0  0  0  0
   -6.1546  -12.1682    0.0000 O   0  0  0  0  0  0  0  0  0  0  0  0
   -3.5611  -12.3236    0.0000 N   0  0  0  0  0  0  0  0  0  0  0  0
  1  2  1  0
  2  3  2  0
  3  4  1  0
  4  5  2  0
  5  6  1  0
  6  7  2  0
  7  8  1  0
  8  9  2  0
  9 10  1  0
 10 11  1  0
 11 12  2  0
 12 13  1  0
 13 14  2  0
 14 15  1  0
 15 16  2  0
 16 17  1  0
 17 18  2  0
 18 19  1  0
 19 20  2  0
 19 21  1  0
 21 22  1  0
 22 23  2  0
 22 24  1  0
 24 25  2  0
 25 26  1  0
 26 27  2  0
 27 28  1  0
 28 29  2  0
 18 30  1  0
 30 31  2  0
 31 32  1  0
 32 33  2  0
 33 34  1  0
 34 35  2  0
 35 36  1  0
 36 37  2  0
 14 38  1  0
 38 39  2  0
  5 40  1  0
 40 41  2  0
 40 42  1  0
 42  2  1  0
 10  6  1  0
 39 11  1  0
 36 15  1  0
 29 24  1  0
 35 30  1  0
M  END
>  <Title>  (505) 
idAATKgen7

$$$$

     RDKit          2D

 30 33  0  0  0  0  0  0  0  0999 V2000
    3.0000    0.0000    0.0000 C   0  0  0  0  0  0  0  0  0  0  0  0
    1.5000    0.0000    0.0000 C   0  0  0  0  0  0  0  0  0  0  0  0
    0.7500    1.2990    0.0000 C   0  0  0  0  0  0  0  0  0  0  0  0
   -0.7500    1.2990    0.0000 C   0  0  0  0  0  0  0  0  0  0  0  0
   -1.5000    0.0000    0.0000 C   0  0  0  0  0  0  0  0  0  0  0  0
   -3.0000    0.0000    0.0000 C   0  0  0  0  0  0  0  0  0  0  0  0
   -3.8817   -1.2135    0.0000 N   0  0  0  0  0  0  0  0  0  0  0  0
   -5.3083   -0.7500    0.0000 N   0  0  0  0  0  0  0  0  0  0  0  0
   -5.3083    0.7500    0.0000 N   0  0  0  0  0  0  0  0  0  0  0  0
   -3.8817    1.2135    0.0000 N   0  0  0  0  0  0  0  0  0  0  0  0
   -3.4182    2.6401    0.0000 C   0  0  0  0  0  0  0  0  0  0  0  0
   -1.9509    2.9520    0.0000 C   0  0  0  0  0  0  0  0  0  0  0  0
   -1.4874    4.3786    0.0000 C   0  0  0  0  0  0  0  0  0  0  0  0
   -2.4911    5.4933    0.0000 C   0  0  0  0  0  0  0  0  0  0  0  0
   -2.0276    6.9199    0.0000 C   0  0  0  0  0  0  0  0  0  0  0  0
   -3.0313    8.0346    0.0000 O   0  0  0  0  0  0  0  0  0  0  0  0
   -0.5604    7.2317    0.0000 N   0  0  0  0  0  0  0  0  0  0  0  0
   -0.0968    8.6583    0.0000 C   0  0  0  0  0  0  0  0  0  0  0  0
   -1.1005    9.7730    0.0000 O   0  0  0  0  0  0  0  0  0  0  0  0
    1.3704    8.9702    0.0000 C   0  0  0  0  0  0  0  0  0  0  0  0
    2.3741    7.8555    0.0000 C   0  0  0  0  0  0  0  0  0  0  0  0
    3.8413    8.1673    0.0000 C   0  0  0  0  0  0  0  0  0  0  0  0
    4.3048    9.5939    0.0000 C   0  0  0  0  0  0  0  0  0  0  0  0
    3.3011   10.7086    0.0000 C   0  0  0  0  0  0  0  0  0  0  0  0
    1.8339   10.3968    0.0000 C   0  0  0  0  0  0  0  0  0  0  0  0
   -3.9583    5.1814    0.0000 C   0  0  0  0  0  0  0  0  0  0  0  0
   -4.4218    3.7548    0.0000 N   0  0  0  0  0  0  0  0  0  0  0  0
   -0.7500   -1.2990    0.0000 C   0  0  0  0  0  0  0  0  0  0  0  0
   -1.5000   -2.5981    0.0000 O   0  0  0  0  0  0  0  0  0  0  0  0
    0.7500   -1.2990    0.0000 N   0  0  0  0  0  0  0  0  0  0  0  0
  1  2  1  0
  2  3  2  0
  3  4  1  0
  4  5  2  0
  5  6  1  0
  6  7  2  0
  7  8  1  0
  8  9  2  0
  9 10  1  0
 10 11  1  0
 11 12  2  0
 12 13  1  0
 13 14  2  0
 14 15  1  0
 15 16  2  0
 15 17  1  0
 17 18  1  0
 18 19  2  0
 18 20  1  0
 20 21  2  0
 21 22  1  0
 22 23  2  0
 23 24  1  0
 24 25  2  0
 14 26  1  0
 26 27  2  0
  5 28  1  0
 28 29  2  0
 28 30  1  0
 30  2  1  0
 10  6  1  0
 27 11  1  0
 25 20  1  0
M  END
>  <Title>  (506) 
idAATLgen7

$$$$

     RDKit          2D

 62 71  0  0  0  0  0  0  0  0999 V2000
    0.1082   13.6047    0.0000 C   0  0  0  0  0  0  0  0  0  0  0  0
   -1.2621   12.9946    0.0000 C   0  0  0  0  0  0  0  0  0  0  0  0
   -2.4756   13.8763    0.0000 C   0  0  0  0  0  0  0  0  0  0  0  0
   -3.8459   13.2662    0.0000 C   0  0  0  0  0  0  0  0  0  0  0  0
   -4.0027   11.7744    0.0000 C   0  0  0  0  0  0  0  0  0  0  0  0
   -5.3730   11.1643    0.0000 C   0  0  0  0  0  0  0  0  0  0  0  0
   -6.5866   12.0460    0.0000 O   0  0  0  0  0  0  0  0  0  0  0  0
   -5.5298    9.6725    0.0000 N   0  0  0  0  0  0  0  0  0  0  0  0
   -6.9002    9.0624    0.0000 C   0  0  0  0  0  0  0  0  0  0  0  0
   -8.1992    9.8124    0.0000 N   0  0  0  0  0  0  0  0  0  0  0  0
   -9.3139    8.8087    0.0000 N   0  0  0  0  0  0  0  0  0  0  0  0
   -8.7038    7.4384    0.0000 N   0  0  0  0  0  0  0  0  0  0  0  0
   -7.2120    7.5952    0.0000 N   0  0  0  0  0  0  0  0  0  0  0  0
   -6.2083    6.4805    0.0000 C   0  0  0  0  0  0  0  0  0  0  0  0
   -4.7411    6.7923    0.0000 C   0  0  0  0  0  0  0  0  0  0  0  0
   -3.7374    5.6776    0.0000 C   0  0  0  0  0  0  0  0  0  0  0  0
   -4.2009    4.2510    0.0000 C   0  0  0  0  0  0  0  0  0  0  0  0
   -3.1972    3.1363    0.0000 C   0  0  0  0  0  0  0  0  0  0  0  0
   -1.7300    3.4482    0.0000 C   0  0  0  0  0  0  0  0  0  0  0  0
   -0.7263    2.3334    0.0000 C   0  0  0  0  0  0  0  0  0  0  0  0
   -1.1898    0.9069    0.0000 C   0  0  0  0  0  0  0  0  0  0  0  0
   -2.6571    0.5950    0.0000 C   0  0  0  0  0  0  0  0  0  0  0  0
   -3.6608    1.7097    0.0000 C   0  0  0  0  0  0  0  0  0  0  0  0
   -5.6682    3.9391    0.0000 C   0  0  0  0  0  0  0  0  0  0  0  0
   -6.6718    5.0539    0.0000 C   0  0  0  0  0  0  0  0  0  0  0  0
   -8.1391    4.7420    0.0000 C   0  0  0  0  0  0  0  0  0  0  0  0
   -9.1428    5.8567    0.0000 C   0  0  0  0  0  0  0  0  0  0  0  0
  -10.6100    5.5448    0.0000 C   0  0  0  0  0  0  0  0  0  0  0  0
  -11.0735    4.1183    0.0000 C   0  0  0  0  0  0  0  0  0  0  0  0
  -12.5407    3.8064    0.0000 C   0  0  0  0  0  0  0  0  0  0  0  0
  -13.1508    2.4361    0.0000 N   0  0  0  0  0  0  0  0  0  0  0  0
  -14.6426    2.5929    0.0000 N   0  0  0  0  0  0  0  0  0  0  0  0
  -14.9545    4.0601    0.0000 N   0  0  0  0  0  0  0  0  0  0  0  0
  -13.6555    4.8101    0.0000 N   0  0  0  0  0  0  0  0  0  0  0  0
  -13.4987    6.3019    0.0000 C   0  0  0  0  0  0  0  0  0  0  0  0
  -12.1996    7.0519    0.0000 N   0  0  0  0  0  0  0  0  0  0  0  0
  -12.5115    8.5191    0.0000 N   0  0  0  0  0  0  0  0  0  0  0  0
  -14.0033    8.6759    0.0000 N   0  0  0  0  0  0  0  0  0  0  0  0
  -14.6134    7.3056    0.0000 N   0  0  0  0  0  0  0  0  0  0  0  0
  -16.0806    6.9937    0.0000 C   0  0  0  0  0  0  0  0  0  0  0  0
  -16.6907    5.6234    0.0000 N   0  0  0  0  0  0  0  0  0  0  0  0
  -18.1825    5.7802    0.0000 N   0  0  0  0  0  0  0  0  0  0  0  0
  -18.4944    7.2474    0.0000 N   0  0  0  0  0  0  0  0  0  0  0  0
  -17.1953    7.9974    0.0000 N   0  0  0  0  0  0  0  0  0  0  0  0
  -17.0385    9.4892    0.0000 C   0  0  0  0  0  0  0  0  0  0  0  0
  -15.6682   10.0993    0.0000 C   0  0  0  0  0  0  0  0  0  0  0  0
  -15.5114   11.5911    0.0000 C   0  0  0  0  0  0  0  0  0  0  0  0
  -16.7249   12.4727    0.0000 C   0  0  0  0  0  0  0  0  0  0  0  0
  -18.0953   11.8626    0.0000 C   0  0  0  0  0  0  0  0  0  0  0  0
  -18.2520   10.3709    0.0000 C   0  0  0  0  0  0  0  0  0  0  0  0
  -10.0698    3.0035    0.0000 C   0  0  0  0  0  0  0  0  0  0  0  0
   -8.6026    3.3154    0.0000 C   0  0  0  0  0  0  0  0  0  0  0  0
   -7.5989    2.2007    0.0000 C   0  0  0  0  0  0  0  0  0  0  0  0
   -6.1317    2.5126    0.0000 C   0  0  0  0  0  0  0  0  0  0  0  0
   -5.1280    1.3978    0.0000 C   0  0  0  0  0  0  0  0  0  0  0  0
   -5.5915   -0.0287    0.0000 C   0  0  0  0  0  0  0  0  0  0  0  0
   -4.5878   -1.1435    0.0000 C   0  0  0  0  0  0  0  0  0  0  0  0
   -7.0587   -0.3406    0.0000 C   0  0  0  0  0  0  0  0  0  0  0  0
   -7.5223   -1.7672    0.0000 O   0  0  0  0  0  0  0  0  0  0  0  0
   -8.0624    0.7741    0.0000 N   0  0  0  0  0  0  0  0  0  0  0  0
   -2.7892   10.8927    0.0000 N   0  0  0  0  0  0  0  0  0  0  0  0
   -1.4189   11.5028    0.0000 C   0  0  0  0  0  0  0  0  0  0  0  0
  1  2  1  0
  2  3  2  0
  3  4  1  0
  4  5  2  0
  5  6  1  0
  6  7  2  0
  6  8  1  0
  8  9  1  0
  9 10  2  0
 10 11  1  0
 11 12  2  0
 12 13  1  0
 13 14  1  0
 14 15  2  0
 15 16  1  0
 16 17  2  0
 17 18  1  0
 18 19  2  0
 19 20  1  0
 20 21  2  0
 21 22  1  0
 22 23  2  0
 17 24  1  0
 24 25  2  0
 25 26  1  0
 26 27  2  0
 27 28  1  0
 28 29  2  0
 29 30  1  0
 30 31  2  0
 31 32  1  0
 32 33  2  0
 33 34  1  0
 34 35  1  0
 35 36  2  0
 36 37  1  0
 37 38  2  0
 38 39  1  0
 39 40  1  0
 40 41  2  0
 41 42  1  0
 42 43  2  0
 43 44  1  0
 44 45  1  0
 45 46  2  0
 46 47  1  0
 47 48  2  0
 48 49  1  0
 49 50  2  0
 29 51  1  0
 51 52  2  0
 52 53  1  0
 53 54  2  0
 54 55  1  0
 55 56  2  0
 56 57  1  0
 56 58  1  0
 58 59  2  0
 58 60  1  0
  5 61  1  0
 61 62  1  0
 62  2  1  0
 13  9  1  0
 25 14  1  0
 52 26  1  0
 60 53  1  0
 23 18  1  0
 34 30  1  0
 39 35  1  0
 44 40  1  0
 50 45  1  0
M  END
>  <Title>  (507) 
idAATMgen7

$$$$

     RDKit          2D

 54 62  0  0  0  0  0  0  0  0999 V2000
    3.0000    0.0000    0.0000 C   0  0  0  0  0  0  0  0  0  0  0  0
    1.5000    0.0000    0.0000 C   0  0  0  0  0  0  0  0  0  0  0  0
    0.7500    1.2990    0.0000 C   0  0  0  0  0  0  0  0  0  0  0  0
   -0.7500    1.2990    0.0000 C   0  0  0  0  0  0  0  0  0  0  0  0
   -1.5000    0.0000    0.0000 C   0  0  0  0  0  0  0  0  0  0  0  0
   -3.0000    0.0000    0.0000 C   0  0  0  0  0  0  0  0  0  0  0  0
   -3.8817   -1.2135    0.0000 N   0  0  0  0  0  0  0  0  0  0  0  0
   -5.3083   -0.7500    0.0000 N   0  0  0  0  0  0  0  0  0  0  0  0
   -5.3083    0.7500    0.0000 N   0  0  0  0  0  0  0  0  0  0  0  0
   -3.8817    1.2135    0.0000 N   0  0  0  0  0  0  0  0  0  0  0  0
   -3.4182    2.6401    0.0000 C   0  0  0  0  0  0  0  0  0  0  0  0
   -1.9509    2.9520    0.0000 C   0  0  0  0  0  0  0  0  0  0  0  0
   -1.4874    4.3786    0.0000 C   0  0  0  0  0  0  0  0  0  0  0  0
   -2.4911    5.4933    0.0000 C   0  0  0  0  0  0  0  0  0  0  0  0
   -2.0276    6.9199    0.0000 C   0  0  0  0  0  0  0  0  0  0  0  0
   -2.9093    8.1334    0.0000 N   0  0  0  0  0  0  0  0  0  0  0  0
   -2.0276    9.3469    0.0000 N   0  0  0  0  0  0  0  0  0  0  0  0
   -0.6010    8.8834    0.0000 N   0  0  0  0  0  0  0  0  0  0  0  0
   -0.6010    7.3834    0.0000 N   0  0  0  0  0  0  0  0  0  0  0  0
    0.6125    6.5017    0.0000 C   0  0  0  0  0  0  0  0  0  0  0  0
    0.4557    5.0099    0.0000 C   0  0  0  0  0  0  0  0  0  0  0  0
    1.6693    4.1283    0.0000 C   0  0  0  0  0  0  0  0  0  0  0  0
    3.0396    4.7384    0.0000 C   0  0  0  0  0  0  0  0  0  0  0  0
    4.2531    3.8567    0.0000 C   0  0  0  0  0  0  0  0  0  0  0  0
    4.0963    2.3649    0.0000 C   0  0  0  0  0  0  0  0  0  0  0  0
    5.3098    1.4832    0.0000 C   0  0  0  0  0  0  0  0  0  0  0  0
    6.6802    2.0933    0.0000 C   0  0  0  0  0  0  0  0  0  0  0  0
    6.8370    3.5851    0.0000 C   0  0  0  0  0  0  0  0  0  0  0  0
    5.6234    4.4668    0.0000 C   0  0  0  0  0  0  0  0  0  0  0  0
    3.1964    6.2301    0.0000 C   0  0  0  0  0  0  0  0  0  0  0  0
    1.9829    7.1118    0.0000 C   0  0  0  0  0  0  0  0  0  0  0  0
    2.1396    8.6036    0.0000 C   0  0  0  0  0  0  0  0  0  0  0  0
    1.0249    9.6073    0.0000 C   0  0  0  0  0  0  0  0  0  0  0  0
    1.6350   10.9776    0.0000 C   0  0  0  0  0  0  0  0  0  0  0  0
    3.1268   10.8208    0.0000 C   0  0  0  0  0  0  0  0  0  0  0  0
    4.1305   11.9355    0.0000 C   0  0  0  0  0  0  0  0  0  0  0  0
    5.5977   11.6237    0.0000 C   0  0  0  0  0  0  0  0  0  0  0  0
    6.6014   12.7384    0.0000 C   0  0  0  0  0  0  0  0  0  0  0  0
    6.1379   14.1650    0.0000 C   0  0  0  0  0  0  0  0  0  0  0  0
    7.1416   15.2797    0.0000 C   0  0  0  0  0  0  0  0  0  0  0  0
    8.6088   14.9678    0.0000 C   0  0  0  0  0  0  0  0  0  0  0  0
    9.6125   16.0825    0.0000 C   0  0  0  0  0  0  0  0  0  0  0  0
    9.1490   17.5091    0.0000 C   0  0  0  0  0  0  0  0  0  0  0  0
    7.6818   17.8210    0.0000 C   0  0  0  0  0  0  0  0  0  0  0  0
    6.6781   16.7063    0.0000 C   0  0  0  0  0  0  0  0  0  0  0  0
    4.6707   14.4768    0.0000 C   0  0  0  0  0  0  0  0  0  0  0  0
    3.6670   13.3621    0.0000 C   0  0  0  0  0  0  0  0  0  0  0  0
    3.4387    9.3536    0.0000 C   0  0  0  0  0  0  0  0  0  0  0  0
    4.8090    8.7435    0.0000 O   0  0  0  0  0  0  0  0  0  0  0  0
   -3.9583    5.1814    0.0000 C   0  0  0  0  0  0  0  0  0  0  0  0
   -4.4218    3.7548    0.0000 C   0  0  0  0  0  0  0  0  0  0  0  0
   -0.7500   -1.2990    0.0000 C   0  0  0  0  0  0  0  0  0  0  0  0
   -1.5000   -2.5981    0.0000 O   0  0  0  0  0  0  0  0  0  0  0  0
    0.7500   -1.2990    0.0000 N   0  0  0  0  0  0  0  0  0  0  0  0
  1  2  1  0
  2  3  2  0
  3  4  1  0
  4  5  2  0
  5  6  1  0
  6  7  2  0
  7  8  1  0
  8  9  2  0
  9 10  1  0
 10 11  1  0
 11 12  2  0
 12 13  1  0
 13 14  2  0
 14 15  1  0
 15 16  2  0
 16 17  1  0
 17 18  2  0
 18 19  1  0
 19 20  1  0
 20 21  2  0
 21 22  1  0
 22 23  2  0
 23 24  1  0
 24 25  2  0
 25 26  1  0
 26 27  2  0
 27 28  1  0
 28 29  2  0
 23 30  1  0
 30 31  2  0
 31 32  1  0
 32 33  2  0
 33 34  1  0
 34 35  2  0
 35 36  1  0
 36 37  2  0
 37 38  1  0
 38 39  2  0
 39 40  1  0
 40 41  2  0
 41 42  1  0
 42 43  2  0
 43 44  1  0
 44 45  2  0
 39 46  1  0
 46 47  2  0
 35 48  1  0
 48 49  2  0
 14 50  1  0
 50 51  2  0
  5 52  1  0
 52 53  2  0
 52 54  1  0
 54  2  1  0
 10  6  1  0
 51 11  1  0
 19 15  1  0
 31 20  1  0
 48 32  1  0
 29 24  1  0
 47 36  1  0
 45 40  1  0
M  END
>  <Title>  (508) 
idAATNgen7

$$$$

     RDKit          2D

 28 31  0  0  0  0  0  0  0  0999 V2000
    3.0000    0.0000    0.0000 C   0  0  0  0  0  0  0  0  0  0  0  0
    1.5000    0.0000    0.0000 C   0  0  0  0  0  0  0  0  0  0  0  0
    0.7500   -1.2990    0.0000 C   0  0  0  0  0  0  0  0  0  0  0  0
   -0.7500   -1.2990    0.0000 C   0  0  0  0  0  0  0  0  0  0  0  0
   -1.5000    0.0000    0.0000 C   0  0  0  0  0  0  0  0  0  0  0  0
   -3.0000    0.0000    0.0000 C   0  0  0  0  0  0  0  0  0  0  0  0
   -3.7500   -1.2990    0.0000 O   0  0  0  0  0  0  0  0  0  0  0  0
   -3.7500    1.2990    0.0000 N   0  0  0  0  0  0  0  0  0  0  0  0
   -5.2500    1.2990    0.0000 C   0  0  0  0  0  0  0  0  0  0  0  0
   -6.1317    0.0855    0.0000 N   0  0  0  0  0  0  0  0  0  0  0  0
   -7.5583    0.5490    0.0000 N   0  0  0  0  0  0  0  0  0  0  0  0
   -7.5583    2.0490    0.0000 N   0  0  0  0  0  0  0  0  0  0  0  0
   -6.1317    2.5126    0.0000 N   0  0  0  0  0  0  0  0  0  0  0  0
   -5.6682    3.9391    0.0000 C   0  0  0  0  0  0  0  0  0  0  0  0
   -4.2009    4.2510    0.0000 C   0  0  0  0  0  0  0  0  0  0  0  0
   -3.7374    5.6776    0.0000 C   0  0  0  0  0  0  0  0  0  0  0  0
   -4.7411    6.7923    0.0000 C   0  0  0  0  0  0  0  0  0  0  0  0
   -4.2776    8.2189    0.0000 C   0  0  0  0  0  0  0  0  0  0  0  0
   -2.8104    8.5308    0.0000 C   0  0  0  0  0  0  0  0  0  0  0  0
   -1.8067    7.4161    0.0000 C   0  0  0  0  0  0  0  0  0  0  0  0
   -0.3394    7.7279    0.0000 C   0  0  0  0  0  0  0  0  0  0  0  0
    0.1241    9.1545    0.0000 C   0  0  0  0  0  0  0  0  0  0  0  0
   -0.8796   10.2692    0.0000 C   0  0  0  0  0  0  0  0  0  0  0  0
   -2.3468    9.9574    0.0000 C   0  0  0  0  0  0  0  0  0  0  0  0
   -6.2083    6.4805    0.0000 C   0  0  0  0  0  0  0  0  0  0  0  0
   -6.6718    5.0539    0.0000 C   0  0  0  0  0  0  0  0  0  0  0  0
   -0.7500    1.2990    0.0000 C   0  0  0  0  0  0  0  0  0  0  0  0
    0.7500    1.2990    0.0000 C   0  0  0  0  0  0  0  0  0  0  0  0
  1  2  1  0
  2  3  2  0
  3  4  1  0
  4  5  2  0
  5  6  1  0
  6  7  2  0
  6  8  1  0
  8  9  1  0
  9 10  2  0
 10 11  1  0
 11 12  2  0
 12 13  1  0
 13 14  1  0
 14 15  2  0
 15 16  1  0
 16 17  2  0
 17 18  1  0
 18 19  1  0
 19 20  2  0
 20 21  1  0
 21 22  2  0
 22 23  1  0
 23 24  2  0
 17 25  1  0
 25 26  2  0
  5 27  1  0
 27 28  2  0
 28  2  1  0
 13  9  1  0
 26 14  1  0
 24 19  1  0
M  END
>  <Title>  (509) 
idAATOgen7

$$$$

     RDKit          2D

 28 31  0  0  0  0  0  0  0  0999 V2000
    3.0000    0.0000    0.0000 C   0  0  0  0  0  0  0  0  0  0  0  0
    1.5000    0.0000    0.0000 C   0  0  0  0  0  0  0  0  0  0  0  0
    0.7500    1.2990    0.0000 C   0  0  0  0  0  0  0  0  0  0  0  0
   -0.7500    1.2990    0.0000 C   0  0  0  0  0  0  0  0  0  0  0  0
   -1.5000    0.0000    0.0000 C   0  0  0  0  0  0  0  0  0  0  0  0
   -3.0000    0.0000    0.0000 C   0  0  0  0  0  0  0  0  0  0  0  0
   -3.8817   -1.2135    0.0000 N   0  0  0  0  0  0  0  0  0  0  0  0
   -5.3083   -0.7500    0.0000 N   0  0  0  0  0  0  0  0  0  0  0  0
   -5.3083    0.7500    0.0000 N   0  0  0  0  0  0  0  0  0  0  0  0
   -3.8817    1.2135    0.0000 N   0  0  0  0  0  0  0  0  0  0  0  0
   -3.4182    2.6401    0.0000 C   0  0  0  0  0  0  0  0  0  0  0  0
   -1.9509    2.9520    0.0000 C   0  0  0  0  0  0  0  0  0  0  0  0
   -1.4874    4.3786    0.0000 C   0  0  0  0  0  0  0  0  0  0  0  0
   -2.4911    5.4933    0.0000 C   0  0  0  0  0  0  0  0  0  0  0  0
   -2.0276    6.9199    0.0000 C   0  0  0  0  0  0  0  0  0  0  0  0
   -3.0313    8.0346    0.0000 O   0  0  0  0  0  0  0  0  0  0  0  0
   -0.5604    7.2317    0.0000 N   0  0  0  0  0  0  0  0  0  0  0  0
   -0.0968    8.6583    0.0000 C   0  0  0  0  0  0  0  0  0  0  0  0
    1.3704    8.9702    0.0000 C   0  0  0  0  0  0  0  0  0  0  0  0
    1.8339   10.3968    0.0000 C   0  0  0  0  0  0  0  0  0  0  0  0
    0.8302   11.5115    0.0000 C   0  0  0  0  0  0  0  0  0  0  0  0
   -0.6370   11.1996    0.0000 C   0  0  0  0  0  0  0  0  0  0  0  0
   -1.1005    9.7730    0.0000 C   0  0  0  0  0  0  0  0  0  0  0  0
   -3.9583    5.1814    0.0000 C   0  0  0  0  0  0  0  0  0  0  0  0
   -4.4218    3.7548    0.0000 C   0  0  0  0  0  0  0  0  0  0  0  0
   -0.7500   -1.2990    0.0000 C   0  0  0  0  0  0  0  0  0  0  0  0
   -1.5000   -2.5981    0.0000 O   0  0  0  0  0  0  0  0  0  0  0  0
    0.7500   -1.2990    0.0000 N   0  0  0  0  0  0  0  0  0  0  0  0
  1  2  1  0
  2  3  2  0
  3  4  1  0
  4  5  2  0
  5  6  1  0
  6  7  2  0
  7  8  1  0
  8  9  2  0
  9 10  1  0
 10 11  1  0
 11 12  2  0
 12 13  1  0
 13 14  2  0
 14 15  1  0
 15 16  2  0
 15 17  1  0
 17 18  1  0
 18 19  2  0
 19 20  1  0
 20 21  2  0
 21 22  1  0
 22 23  2  0
 14 24  1  0
 24 25  1  0
  5 26  1  0
 26 27  2  0
 26 28  1  0
 28  2  1  0
 10  6  1  0
 25 11  1  0
 23 18  1  0
M  END
>  <Title>  (510) 
idAATPgen7

$$$$

     RDKit          2D

 32 36  0  0  0  0  0  0  0  0999 V2000
   -4.0411   -8.1964    0.0000 C   0  0  0  0  0  0  0  0  0  0  0  0
   -2.9227   -7.1969    0.0000 C   0  0  0  0  0  0  0  0  0  0  0  0
   -1.5712   -7.8477    0.0000 C   0  0  0  0  0  0  0  0  0  0  0  0
   -0.1554   -7.3523    0.0000 C   0  0  0  0  0  0  0  0  0  0  0  0
    0.4954   -6.0008    0.0000 C   0  0  0  0  0  0  0  0  0  0  0  0
    1.9931   -6.0849    0.0000 C   0  0  0  0  0  0  0  0  0  0  0  0
    2.9414   -4.9228    0.0000 C   0  0  0  0  0  0  0  0  0  0  0  0
    4.3397   -5.4655    0.0000 N   0  0  0  0  0  0  0  0  0  0  0  0
    4.2556   -6.9632    0.0000 N   0  0  0  0  0  0  0  0  0  0  0  0
    2.8053   -7.3460    0.0000 N   0  0  0  0  0  0  0  0  0  0  0  0
    2.2625   -8.7443    0.0000 C   0  0  0  0  0  0  0  0  0  0  0  0
    0.7801   -8.9734    0.0000 C   0  0  0  0  0  0  0  0  0  0  0  0
    0.2373  -10.3718    0.0000 C   0  0  0  0  0  0  0  0  0  0  0  0
    1.1770  -11.5410    0.0000 C   0  0  0  0  0  0  0  0  0  0  0  0
    0.6342  -12.9394    0.0000 F   0  0  0  0  0  0  0  0  0  0  0  0
    2.6593  -11.3119    0.0000 C   0  0  0  0  0  0  0  0  0  0  0  0
    3.5990  -12.4812    0.0000 O   0  0  0  0  0  0  0  0  0  0  0  0
    3.2021   -9.9136    0.0000 N   0  0  0  0  0  0  0  0  0  0  0  0
   -0.0000   -4.5850    0.0000 N   0  0  0  0  0  0  0  0  0  0  0  0
    1.3515   -3.9342    0.0000 N   0  0  0  0  0  0  0  0  0  0  0  0
    1.6852   -2.4718    0.0000 C   0  0  0  0  0  0  0  0  0  0  0  0
    3.1476   -2.1380    0.0000 C   0  0  0  0  0  0  0  0  0  0  0  0
    0.7500   -1.2990    0.0000 C   0  0  0  0  0  0  0  0  0  0  0  0
    1.5000    0.0000    0.0000 C   0  0  0  0  0  0  0  0  0  0  0  0
    0.7500    1.2990    0.0000 C   0  0  0  0  0  0  0  0  0  0  0  0
   -0.7500    1.2990    0.0000 C   0  0  0  0  0  0  0  0  0  0  0  0
   -1.5000    0.0000    0.0000 C   0  0  0  0  0  0  0  0  0  0  0  0
   -0.7500   -1.2990    0.0000 C   0  0  0  0  0  0  0  0  0  0  0  0
   -1.6852   -2.4718    0.0000 C   0  0  0  0  0  0  0  0  0  0  0  0
   -1.3515   -3.9342    0.0000 C   0  0  0  0  0  0  0  0  0  0  0  0
   -2.7673   -4.4296    0.0000 C   0  0  0  0  0  0  0  0  0  0  0  0
   -3.4181   -5.7810    0.0000 C   0  0  0  0  0  0  0  0  0  0  0  0
  1  2  1  0
  2  3  2  0
  3  4  1  0
  4  5  2  0
  5  6  1  0
  6  7  2  0
  7  8  1  0
  8  9  2  0
  9 10  1  0
 10 11  1  0
 11 12  2  0
 12 13  1  0
 13 14  2  0
 14 15  1  0
 14 16  1  0
 16 17  2  0
 16 18  1  0
  5 19  1  0
 19 20  1  0
 20 21  2  0
 21 22  1  0
 21 23  1  0
 23 24  2  0
 24 25  1  0
 25 26  2  0
 26 27  1  0
 27 28  2  0
 28 29  1  0
 29 30  2  0
 30 31  1  0
 31 32  2  0
 32  2  1  0
 10  6  1  0
 18 11  1  0
 30 19  1  0
 28 23  1  0
M  END
>  <Title>  (511) 
idAATQgen7

$$$$

     RDKit          2D

 16 16  0  0  0  0  0  0  0  0999 V2000
    6.2111   -0.5490    0.0000 C   0  0  0  0  0  0  0  0  0  0  0  0
    4.9121   -1.2990    0.0000 C   0  0  0  0  0  0  0  0  0  0  0  0
    3.6131   -2.0490    0.0000 C   0  0  0  0  0  0  0  0  0  0  0  0
    5.6621   -2.5981    0.0000 C   0  0  0  0  0  0  0  0  0  0  0  0
    4.1621    0.0000    0.0000 C   0  0  0  0  0  0  0  0  0  0  0  0
    2.6621    0.0000    0.0000 C   0  0  0  0  0  0  0  0  0  0  0  0
    2.2395    1.4392    0.0000 C   0  0  0  0  0  0  0  0  0  0  0  0
    1.1059    2.4215    0.0000 C   0  0  0  0  0  0  0  0  0  0  0  0
   -0.3789    2.6350    0.0000 C   0  0  0  0  0  0  0  0  0  0  0  0
   -1.7433    2.0119    0.0000 C   0  0  0  0  0  0  0  0  0  0  0  0
   -2.5543    0.7500    0.0000 C   0  0  0  0  0  0  0  0  0  0  0  0
   -2.5543   -0.7500    0.0000 C   0  0  0  0  0  0  0  0  0  0  0  0
   -1.7433   -2.0119    0.0000 C   0  0  0  0  0  0  0  0  0  0  0  0
   -0.3789   -2.6350    0.0000 C   0  0  0  0  0  0  0  0  0  0  0  0
    1.1059   -2.4215    0.0000 C   0  0  0  0  0  0  0  0  0  0  0  0
    2.2395   -1.4392    0.0000 C   0  0  0  0  0  0  0  0  0  0  0  0
  1  2  1  0
  2  3  1  0
  2  4  1  0
  2  5  1  0
  5  6  1  0
  6  7  1  0
  7  8  1  0
  8  9  1  0
  9 10  1  0
 10 11  1  0
 11 12  1  0
 12 13  1  0
 13 14  1  0
 14 15  1  0
 15 16  1  0
 16  6  1  0
M  END
>  <Title>  (512) 
idAATRgen7

$$$$

     RDKit          2D

 32 35  0  0  0  0  0  0  0  0999 V2000
    3.7500   -1.2990    0.0000 C   0  0  0  0  0  0  0  0  0  0  0  0
    3.0000    0.0000    0.0000 O   0  0  0  0  0  0  0  0  0  0  0  0
    1.5000    0.0000    0.0000 C   0  0  0  0  0  0  0  0  0  0  0  0
    0.7500   -1.2990    0.0000 C   0  0  0  0  0  0  0  0  0  0  0  0
   -0.7500   -1.2990    0.0000 C   0  0  0  0  0  0  0  0  0  0  0  0
   -1.5000    0.0000    0.0000 C   0  0  0  0  0  0  0  0  0  0  0  0
   -3.0000    0.0000    0.0000 C   0  0  0  0  0  0  0  0  0  0  0  0
   -3.7500   -1.2990    0.0000 O   0  0  0  0  0  0  0  0  0  0  0  0
   -3.7500    1.2990    0.0000 N   0  0  0  0  0  0  0  0  0  0  0  0
   -5.2500    1.2990    0.0000 C   0  0  0  0  0  0  0  0  0  0  0  0
   -6.1317    0.0855    0.0000 N   0  0  0  0  0  0  0  0  0  0  0  0
   -7.5583    0.5490    0.0000 N   0  0  0  0  0  0  0  0  0  0  0  0
   -7.5583    2.0490    0.0000 N   0  0  0  0  0  0  0  0  0  0  0  0
   -6.1317    2.5126    0.0000 N   0  0  0  0  0  0  0  0  0  0  0  0
   -5.6682    3.9391    0.0000 C   0  0  0  0  0  0  0  0  0  0  0  0
   -4.2009    4.2510    0.0000 C   0  0  0  0  0  0  0  0  0  0  0  0
   -3.7374    5.6776    0.0000 C   0  0  0  0  0  0  0  0  0  0  0  0
   -4.7411    6.7923    0.0000 C   0  0  0  0  0  0  0  0  0  0  0  0
   -4.2776    8.2189    0.0000 C   0  0  0  0  0  0  0  0  0  0  0  0
   -2.8104    8.5308    0.0000 C   0  0  0  0  0  0  0  0  0  0  0  0
   -2.3468    9.9574    0.0000 C   0  0  0  0  0  0  0  0  0  0  0  0
   -3.3505   11.0721    0.0000 C   0  0  0  0  0  0  0  0  0  0  0  0
   -2.8870   12.4987    0.0000 C   0  0  0  0  0  0  0  0  0  0  0  0
   -3.8907   13.6134    0.0000 O   0  0  0  0  0  0  0  0  0  0  0  0
   -1.4198   12.8105    0.0000 N   0  0  0  0  0  0  0  0  0  0  0  0
   -0.9563   14.2371    0.0000 O   0  0  0  0  0  0  0  0  0  0  0  0
   -4.8177   10.7602    0.0000 C   0  0  0  0  0  0  0  0  0  0  0  0
   -5.2813    9.3336    0.0000 C   0  0  0  0  0  0  0  0  0  0  0  0
   -6.2083    6.4805    0.0000 C   0  0  0  0  0  0  0  0  0  0  0  0
   -6.6718    5.0539    0.0000 N   0  0  0  0  0  0  0  0  0  0  0  0
   -0.7500    1.2990    0.0000 C   0  0  0  0  0  0  0  0  0  0  0  0
    0.7500    1.2990    0.0000 C   0  0  0  0  0  0  0  0  0  0  0  0
  1  2  1  0
  2  3  1  0
  3  4  2  0
  4  5  1  0
  5  6  2  0
  6  7  1  0
  7  8  2  0
  7  9  1  0
  9 10  1  0
 10 11  2  0
 11 12  1  0
 12 13  2  0
 13 14  1  0
 14 15  1  0
 15 16  2  0
 16 17  1  0
 17 18  2  0
 18 19  1  0
 19 20  2  0
 20 21  1  0
 21 22  2  0
 22 23  1  0
 23 24  2  0
 23 25  1  0
 25 26  1  0
 22 27  1  0
 27 28  1  0
 18 29  1  0
 29 30  1  0
  6 31  1  0
 31 32  2  0
 32  3  1  0
 14 10  1  0
 30 15  1  0
 28 19  1  0
M  END
>  <Title>  (513) 
idAATSgen7

$$$$

     RDKit          2D

 19 19  0  0  0  0  0  0  0  0999 V2000
    5.8191    0.0000    0.0000 O   0  0  0  0  0  0  0  0  0  0  0  0
    4.3191    0.0000    0.0000 C   0  0  0  0  0  0  0  0  0  0  0  0
    4.0586   -1.4772    0.0000 C   0  0  0  0  0  0  0  0  0  0  0  0
    3.3086   -2.7762    0.0000 C   0  0  0  0  0  0  0  0  0  0  0  0
    2.1595   -3.7404    0.0000 C   0  0  0  0  0  0  0  0  0  0  0  0
    0.7500   -4.2535    0.0000 C   0  0  0  0  0  0  0  0  0  0  0  0
   -0.7500   -4.2535    0.0000 C   0  0  0  0  0  0  0  0  0  0  0  0
   -2.1595   -3.7404    0.0000 C   0  0  0  0  0  0  0  0  0  0  0  0
   -3.3086   -2.7762    0.0000 C   0  0  0  0  0  0  0  0  0  0  0  0
   -4.0586   -1.4772    0.0000 C   0  0  0  0  0  0  0  0  0  0  0  0
   -4.3191    0.0000    0.0000 C   0  0  0  0  0  0  0  0  0  0  0  0
   -4.0586    1.4772    0.0000 C   0  0  0  0  0  0  0  0  0  0  0  0
   -3.3086    2.7762    0.0000 C   0  0  0  0  0  0  0  0  0  0  0  0
   -2.1595    3.7404    0.0000 C   0  0  0  0  0  0  0  0  0  0  0  0
   -0.7500    4.2535    0.0000 C   0  0  0  0  0  0  0  0  0  0  0  0
    0.7500    4.2535    0.0000 C   0  0  0  0  0  0  0  0  0  0  0  0
    2.1595    3.7404    0.0000 C   0  0  0  0  0  0  0  0  0  0  0  0
    3.3086    2.7762    0.0000 C   0  0  0  0  0  0  0  0  0  0  0  0
    4.0586    1.4772    0.0000 C   0  0  0  0  0  0  0  0  0  0  0  0
  1  2  1  0
  2  3  2  0
  3  4  1  0
  4  5  2  0
  5  6  1  0
  6  7  2  0
  7  8  1  0
  8  9  2  0
  9 10  1  0
 10 11  2  0
 11 12  1  0
 12 13  2  0
 13 14  1  0
 14 15  2  0
 15 16  1  0
 16 17  2  0
 17 18  1  0
 18 19  2  0
 19  2  1  0
M  END
>  <Title>  (514) 
idAATTgen7

$$$$

     RDKit          2D

 35 39  0  0  0  0  0  0  0  0999 V2000
    3.7500    1.2990    0.0000 C   0  0  0  0  0  0  0  0  0  0  0  0
    3.0000    0.0000    0.0000 O   0  0  0  0  0  0  0  0  0  0  0  0
    1.5000    0.0000    0.0000 C   0  0  0  0  0  0  0  0  0  0  0  0
    0.7500    1.2990    0.0000 C   0  0  0  0  0  0  0  0  0  0  0  0
   -0.7500    1.2990    0.0000 C   0  0  0  0  0  0  0  0  0  0  0  0
   -1.5000    0.0000    0.0000 C   0  0  0  0  0  0  0  0  0  0  0  0
   -3.0000    0.0000    0.0000 C   0  0  0  0  0  0  0  0  0  0  0  0
   -3.8817   -1.2135    0.0000 N   0  0  0  0  0  0  0  0  0  0  0  0
   -5.3083   -0.7500    0.0000 N   0  0  0  0  0  0  0  0  0  0  0  0
   -5.3083    0.7500    0.0000 N   0  0  0  0  0  0  0  0  0  0  0  0
   -3.8817    1.2135    0.0000 N   0  0  0  0  0  0  0  0  0  0  0  0
   -3.4182    2.6401    0.0000 C   0  0  0  0  0  0  0  0  0  0  0  0
   -1.9509    2.9520    0.0000 C   0  0  0  0  0  0  0  0  0  0  0  0
   -1.4874    4.3786    0.0000 C   0  0  0  0  0  0  0  0  0  0  0  0
   -2.4911    5.4933    0.0000 C   0  0  0  0  0  0  0  0  0  0  0  0
   -2.0276    6.9199    0.0000 C   0  0  0  0  0  0  0  0  0  0  0  0
   -3.0313    8.0346    0.0000 O   0  0  0  0  0  0  0  0  0  0  0  0
   -0.5604    7.2317    0.0000 N   0  0  0  0  0  0  0  0  0  0  0  0
   -0.0968    8.6583    0.0000 C   0  0  0  0  0  0  0  0  0  0  0  0
    1.3704    8.9702    0.0000 C   0  0  0  0  0  0  0  0  0  0  0  0
    1.8339   10.3968    0.0000 C   0  0  0  0  0  0  0  0  0  0  0  0
    0.8302   11.5115    0.0000 C   0  0  0  0  0  0  0  0  0  0  0  0
    1.2937   12.9381    0.0000 C   0  0  0  0  0  0  0  0  0  0  0  0
    2.7610   13.2499    0.0000 C   0  0  0  0  0  0  0  0  0  0  0  0
    3.2245   14.6765    0.0000 C   0  0  0  0  0  0  0  0  0  0  0  0
    2.2208   15.7912    0.0000 C   0  0  0  0  0  0  0  0  0  0  0  0
    0.7536   15.4794    0.0000 C   0  0  0  0  0  0  0  0  0  0  0  0
    0.2901   14.0528    0.0000 C   0  0  0  0  0  0  0  0  0  0  0  0
   -0.6370   11.1996    0.0000 C   0  0  0  0  0  0  0  0  0  0  0  0
   -1.1005    9.7730    0.0000 C   0  0  0  0  0  0  0  0  0  0  0  0
   -3.9583    5.1814    0.0000 C   0  0  0  0  0  0  0  0  0  0  0  0
   -4.4218    3.7548    0.0000 C   0  0  0  0  0  0  0  0  0  0  0  0
   -0.7500   -1.2990    0.0000 C   0  0  0  0  0  0  0  0  0  0  0  0
   -1.5000   -2.5981    0.0000 O   0  0  0  0  0  0  0  0  0  0  0  0
    0.7500   -1.2990    0.0000 N   0  0  0  0  0  0  0  0  0  0  0  0
  1  2  1  0
  2  3  1  0
  3  4  2  0
  4  5  1  0
  5  6  2  0
  6  7  1  0
  7  8  2  0
  8  9  1  0
  9 10  2  0
 10 11  1  0
 11 12  1  0
 12 13  2  0
 13 14  1  0
 14 15  2  0
 15 16  1  0
 16 17  2  0
 16 18  1  0
 18 19  1  0
 19 20  2  0
 20 21  1  0
 21 22  2  0
 22 23  1  0
 23 24  2  0
 24 25  1  0
 25 26  2  0
 26 27  1  0
 27 28  2  0
 22 29  1  0
 29 30  2  0
 15 31  1  0
 31 32  2  0
  6 33  1  0
 33 34  2  0
 33 35  1  0
 35  3  1  0
 11  7  1  0
 32 12  1  0
 30 19  1  0
 28 23  1  0
M  END
>  <Title>  (515) 
idAATUgen7

$$$$

     RDKit          2D

 12 12  0  0  0  0  0  0  0  0999 V2000
    4.1621    0.0000    0.0000 C   0  0  0  0  0  0  0  0  0  0  0  0
    2.6621    0.0000    0.0000 C   0  0  0  0  0  0  0  0  0  0  0  0
    2.2395    1.4392    0.0000 C   0  0  0  0  0  0  0  0  0  0  0  0
    1.1059    2.4215    0.0000 C   0  0  0  0  0  0  0  0  0  0  0  0
   -0.3789    2.6350    0.0000 C   0  0  0  0  0  0  0  0  0  0  0  0
   -1.7433    2.0119    0.0000 C   0  0  0  0  0  0  0  0  0  0  0  0
   -2.5543    0.7500    0.0000 C   0  0  0  0  0  0  0  0  0  0  0  0
   -2.5543   -0.7500    0.0000 C   0  0  0  0  0  0  0  0  0  0  0  0
   -1.7433   -2.0119    0.0000 C   0  0  0  0  0  0  0  0  0  0  0  0
   -0.3789   -2.6350    0.0000 C   0  0  0  0  0  0  0  0  0  0  0  0
    1.1059   -2.4215    0.0000 C   0  0  0  0  0  0  0  0  0  0  0  0
    2.2395   -1.4392    0.0000 C   0  0  0  0  0  0  0  0  0  0  0  0
  1  2  1  0
  2  3  1  0
  3  4  1  0
  4  5  1  0
  5  6  1  0
  6  7  1  0
  7  8  1  0
  8  9  1  0
  9 10  1  0
 10 11  1  0
 11 12  1  0
 12  2  1  0
M  END
>  <Title>  (516) 
idAATVgen7

$$$$

     RDKit          2D

 34 38  0  0  0  0  0  0  0  0999 V2000
    3.7500   -1.2990    0.0000 C   0  0  0  0  0  0  0  0  0  0  0  0
    3.0000    0.0000    0.0000 O   0  0  0  0  0  0  0  0  0  0  0  0
    1.5000    0.0000    0.0000 C   0  0  0  0  0  0  0  0  0  0  0  0
    0.7500   -1.2990    0.0000 C   0  0  0  0  0  0  0  0  0  0  0  0
   -0.7500   -1.2990    0.0000 C   0  0  0  0  0  0  0  0  0  0  0  0
   -1.5000    0.0000    0.0000 C   0  0  0  0  0  0  0  0  0  0  0  0
   -3.0000    0.0000    0.0000 C   0  0  0  0  0  0  0  0  0  0  0  0
   -3.7500   -1.2990    0.0000 O   0  0  0  0  0  0  0  0  0  0  0  0
   -3.7500    1.2990    0.0000 N   0  0  0  0  0  0  0  0  0  0  0  0
   -5.2500    1.2990    0.0000 C   0  0  0  0  0  0  0  0  0  0  0  0
   -6.1317    0.0855    0.0000 N   0  0  0  0  0  0  0  0  0  0  0  0
   -7.5583    0.5490    0.0000 N   0  0  0  0  0  0  0  0  0  0  0  0
   -7.5583    2.0490    0.0000 N   0  0  0  0  0  0  0  0  0  0  0  0
   -6.1317    2.5126    0.0000 N   0  0  0  0  0  0  0  0  0  0  0  0
   -5.6682    3.9391    0.0000 C   0  0  0  0  0  0  0  0  0  0  0  0
   -4.2009    4.2510    0.0000 C   0  0  0  0  0  0  0  0  0  0  0  0
   -3.7374    5.6776    0.0000 C   0  0  0  0  0  0  0  0  0  0  0  0
   -4.7411    6.7923    0.0000 C   0  0  0  0  0  0  0  0  0  0  0  0
   -4.2776    8.2189    0.0000 C   0  0  0  0  0  0  0  0  0  0  0  0
   -5.1593    9.4324    0.0000 N   0  0  0  0  0  0  0  0  0  0  0  0
   -4.2776   10.6460    0.0000 N   0  0  0  0  0  0  0  0  0  0  0  0
   -2.8510   10.1824    0.0000 N   0  0  0  0  0  0  0  0  0  0  0  0
   -2.8510    8.6824    0.0000 N   0  0  0  0  0  0  0  0  0  0  0  0
   -1.6375    7.8008    0.0000 C   0  0  0  0  0  0  0  0  0  0  0  0
   -1.7943    6.3090    0.0000 C   0  0  0  0  0  0  0  0  0  0  0  0
   -0.5807    5.4273    0.0000 C   0  0  0  0  0  0  0  0  0  0  0  0
    0.7896    6.0374    0.0000 C   0  0  0  0  0  0  0  0  0  0  0  0
    0.9464    7.5292    0.0000 C   0  0  0  0  0  0  0  0  0  0  0  0
   -0.2671    8.4109    0.0000 C   0  0  0  0  0  0  0  0  0  0  0  0
   -6.2083    6.4805    0.0000 C   0  0  0  0  0  0  0  0  0  0  0  0
   -6.6718    5.0539    0.0000 C   0  0  0  0  0  0  0  0  0  0  0  0
   -0.7500    1.2990    0.0000 C   0  0  0  0  0  0  0  0  0  0  0  0
   -1.5000    2.5981    0.0000 O   0  0  0  0  0  0  0  0  0  0  0  0
    0.7500    1.2990    0.0000 N   0  0  0  0  0  0  0  0  0  0  0  0
  1  2  1  0
  2  3  1  0
  3  4  2  0
  4  5  1  0
  5  6  2  0
  6  7  1  0
  7  8  2  0
  7  9  1  0
  9 10  1  0
 10 11  2  0
 11 12  1  0
 12 13  2  0
 13 14  1  0
 14 15  1  0
 15 16  2  0
 16 17  1  0
 17 18  2  0
 18 19  1  0
 19 20  2  0
 20 21  1  0
 21 22  2  0
 22 23  1  0
 23 24  1  0
 24 25  2  0
 25 26  1  0
 26 27  2  0
 27 28  1  0
 28 29  2  0
 18 30  1  0
 30 31  2  0
  6 32  1  0
 32 33  2  0
 32 34  1  0
 34  3  1  0
 14 10  1  0
 31 15  1  0
 23 19  1  0
 29 24  1  0
M  END
>  <Title>  (517) 
idAATWgen7

$$$$

     RDKit          2D

 24 26  0  0  0  0  0  0  0  0999 V2000
    5.2500   -1.2990    0.0000 C   0  0  0  0  0  0  0  0  0  0  0  0
    3.7500   -1.2990    0.0000 C   0  0  0  0  0  0  0  0  0  0  0  0
    3.0000    0.0000    0.0000 O   0  0  0  0  0  0  0  0  0  0  0  0
    1.5000    0.0000    0.0000 C   0  0  0  0  0  0  0  0  0  0  0  0
    0.7500   -1.2990    0.0000 C   0  0  0  0  0  0  0  0  0  0  0  0
   -0.7500   -1.2990    0.0000 C   0  0  0  0  0  0  0  0  0  0  0  0
   -1.5000    0.0000    0.0000 C   0  0  0  0  0  0  0  0  0  0  0  0
   -3.0000    0.0000    0.0000 C   0  0  0  0  0  0  0  0  0  0  0  0
   -3.8817   -1.2135    0.0000 N   0  0  0  0  0  0  0  0  0  0  0  0
   -5.3083   -0.7500    0.0000 N   0  0  0  0  0  0  0  0  0  0  0  0
   -5.3083    0.7500    0.0000 N   0  0  0  0  0  0  0  0  0  0  0  0
   -3.8817    1.2135    0.0000 N   0  0  0  0  0  0  0  0  0  0  0  0
   -3.4182    2.6401    0.0000 C   0  0  0  0  0  0  0  0  0  0  0  0
   -1.9509    2.9520    0.0000 C   0  0  0  0  0  0  0  0  0  0  0  0
   -1.4874    4.3786    0.0000 C   0  0  0  0  0  0  0  0  0  0  0  0
   -2.4911    5.4933    0.0000 C   0  0  0  0  0  0  0  0  0  0  0  0
   -2.0276    6.9199    0.0000 C   0  0  0  0  0  0  0  0  0  0  0  0
   -3.0313    8.0346    0.0000 O   0  0  0  0  0  0  0  0  0  0  0  0
   -0.5604    7.2317    0.0000 N   0  0  0  0  0  0  0  0  0  0  0  0
   -0.0968    8.6583    0.0000 O   0  0  0  0  0  0  0  0  0  0  0  0
   -3.9583    5.1814    0.0000 C   0  0  0  0  0  0  0  0  0  0  0  0
   -4.4218    3.7548    0.0000 C   0  0  0  0  0  0  0  0  0  0  0  0
   -0.7500    1.2990    0.0000 C   0  0  0  0  0  0  0  0  0  0  0  0
    0.7500    1.2990    0.0000 C   0  0  0  0  0  0  0  0  0  0  0  0
  1  2  1  0
  2  3  1  0
  3  4  1  0
  4  5  2  0
  5  6  1  0
  6  7  2  0
  7  8  1  0
  8  9  2  0
  9 10  1  0
 10 11  2  0
 11 12  1  0
 12 13  1  0
 13 14  2  0
 14 15  1  0
 15 16  2  0
 16 17  1  0
 17 18  2  0
 17 19  1  0
 19 20  1  0
 16 21  1  0
 21 22  1  0
  7 23  1  0
 23 24  2  0
 24  4  1  0
 12  8  1  0
 22 13  1  0
M  END
>  <Title>  (518) 
idAATXgen7

$$$$

     RDKit          2D

 60 69  0  0  0  0  0  0  0  0999 V2000
   -8.2500   -6.4952    0.0000 C   0  0  0  0  0  0  0  0  0  0  0  0
   -7.5000   -5.1962    0.0000 C   0  0  0  0  0  0  0  0  0  0  0  0
   -6.0000   -5.1962    0.0000 C   0  0  0  0  0  0  0  0  0  0  0  0
   -5.2500   -3.8971    0.0000 C   0  0  0  0  0  0  0  0  0  0  0  0
   -6.0000   -2.5981    0.0000 C   0  0  0  0  0  0  0  0  0  0  0  0
   -5.2500   -1.2990    0.0000 N   0  0  0  0  0  0  0  0  0  0  0  0
   -6.0000    0.0000    0.0000 N   0  0  0  0  0  0  0  0  0  0  0  0
   -5.2500    1.2990    0.0000 N   0  0  0  0  0  0  0  0  0  0  0  0
   -3.7500    1.2990    0.0000 N   0  0  0  0  0  0  0  0  0  0  0  0
   -3.0000    0.0000    0.0000 N   0  0  0  0  0  0  0  0  0  0  0  0
   -3.7500   -1.2990    0.0000 N   0  0  0  0  0  0  0  0  0  0  0  0
   -3.0000   -2.5981    0.0000 C   0  0  0  0  0  0  0  0  0  0  0  0
   -3.7500   -3.8971    0.0000 C   0  0  0  0  0  0  0  0  0  0  0  0
   -3.0000   -5.1962    0.0000 C   0  0  0  0  0  0  0  0  0  0  0  0
   -1.5000   -5.1962    0.0000 C   0  0  0  0  0  0  0  0  0  0  0  0
   -0.7500   -6.4952    0.0000 C   0  0  0  0  0  0  0  0  0  0  0  0
    0.7418   -6.6520    0.0000 N   0  0  0  0  0  0  0  0  0  0  0  0
    1.0537   -8.1192    0.0000 N   0  0  0  0  0  0  0  0  0  0  0  0
   -0.2454   -8.8692    0.0000 N   0  0  0  0  0  0  0  0  0  0  0  0
   -1.3601   -7.8655    0.0000 N   0  0  0  0  0  0  0  0  0  0  0  0
   -2.8273   -8.1774    0.0000 C   0  0  0  0  0  0  0  0  0  0  0  0
   -3.8310   -7.0627    0.0000 C   0  0  0  0  0  0  0  0  0  0  0  0
   -5.2982   -7.3745    0.0000 C   0  0  0  0  0  0  0  0  0  0  0  0
   -5.7618   -8.8011    0.0000 C   0  0  0  0  0  0  0  0  0  0  0  0
   -4.7581   -9.9158    0.0000 C   0  0  0  0  0  0  0  0  0  0  0  0
   -3.2909   -9.6040    0.0000 C   0  0  0  0  0  0  0  0  0  0  0  0
   -0.7500   -3.8971    0.0000 C   0  0  0  0  0  0  0  0  0  0  0  0
   -1.5000   -2.5981    0.0000 C   0  0  0  0  0  0  0  0  0  0  0  0
   -0.7500   -1.2990    0.0000 C   0  0  0  0  0  0  0  0  0  0  0  0
   -1.5000    0.0000    0.0000 C   0  0  0  0  0  0  0  0  0  0  0  0
   -0.7500    1.2990    0.0000 C   0  0  0  0  0  0  0  0  0  0  0  0
    0.7500    1.2990    0.0000 C   0  0  0  0  0  0  0  0  0  0  0  0
    1.5000    2.5981    0.0000 C   0  0  0  0  0  0  0  0  0  0  0  0
    2.9918    2.7549    0.0000 N   0  0  0  0  0  0  0  0  0  0  0  0
    3.3037    4.2221    0.0000 N   0  0  0  0  0  0  0  0  0  0  0  0
    2.0046    4.9721    0.0000 N   0  0  0  0  0  0  0  0  0  0  0  0
    0.8899    3.9684    0.0000 N   0  0  0  0  0  0  0  0  0  0  0  0
   -0.5773    4.2803    0.0000 C   0  0  0  0  0  0  0  0  0  0  0  0
   -1.5810    3.1655    0.0000 C   0  0  0  0  0  0  0  0  0  0  0  0
   -3.0482    3.4774    0.0000 C   0  0  0  0  0  0  0  0  0  0  0  0
   -3.5118    4.9040    0.0000 C   0  0  0  0  0  0  0  0  0  0  0  0
   -2.5081    6.0187    0.0000 C   0  0  0  0  0  0  0  0  0  0  0  0
   -1.0409    5.7068    0.0000 C   0  0  0  0  0  0  0  0  0  0  0  0
    1.5000    0.0000    0.0000 C   0  0  0  0  0  0  0  0  0  0  0  0
    0.7500   -1.2990    0.0000 C   0  0  0  0  0  0  0  0  0  0  0  0
    1.5000   -2.5981    0.0000 C   0  0  0  0  0  0  0  0  0  0  0  0
    3.0000   -2.5981    0.0000 C   0  0  0  0  0  0  0  0  0  0  0  0
    3.7500   -3.8971    0.0000 C   0  0  0  0  0  0  0  0  0  0  0  0
    3.0000   -5.1962    0.0000 C   0  0  0  0  0  0  0  0  0  0  0  0
    3.7500   -6.4952    0.0000 C   0  0  0  0  0  0  0  0  0  0  0  0
    5.2500   -6.4952    0.0000 C   0  0  0  0  0  0  0  0  0  0  0  0
    6.1317   -7.7087    0.0000 C   0  0  0  0  0  0  0  0  0  0  0  0
    7.5583   -7.2452    0.0000 C   0  0  0  0  0  0  0  0  0  0  0  0
    7.5583   -5.7452    0.0000 C   0  0  0  0  0  0  0  0  0  0  0  0
    6.1317   -5.2817    0.0000 C   0  0  0  0  0  0  0  0  0  0  0  0
    1.5000   -5.1962    0.0000 C   0  0  0  0  0  0  0  0  0  0  0  0
    0.7500   -3.8971    0.0000 C   0  0  0  0  0  0  0  0  0  0  0  0
   -7.5000   -2.5981    0.0000 C   0  0  0  0  0  0  0  0  0  0  0  0
   -8.2500   -1.2990    0.0000 O   0  0  0  0  0  0  0  0  0  0  0  0
   -8.2500   -3.8971    0.0000 N   0  0  0  0  0  0  0  0  0  0  0  0
  1  2  1  0
  2  3  2  0
  3  4  1  0
  4  5  2  0
  5  6  1  0
  6  7  1  0
  7  8  2  0
  8  9  1  0
  9 10  2  0
 10 11  1  0
 11 12  1  0
 12 13  2  0
 13 14  1  0
 14 15  2  0
 15 16  1  0
 16 17  2  0
 17 18  1  0
 18 19  2  0
 19 20  1  0
 20 21  1  0
 21 22  2  0
 22 23  1  0
 23 24  2  0
 24 25  1  0
 25 26  2  0
 15 27  1  0
 27 28  2  0
 28 29  1  0
 29 30  2  0
 30 31  1  0
 31 32  2  0
 32 33  1  0
 33 34  2  0
 34 35  1  0
 35 36  2  0
 36 37  1  0
 37 38  1  0
 38 39  2  0
 39 40  1  0
 40 41  2  0
 41 42  1  0
 42 43  2  0
 32 44  1  0
 44 45  2  0
 45 46  1  0
 46 47  2  0
 47 48  1  0
 48 49  2  0
 49 50  1  0
 50 51  2  3
 51 52  1  0
 52 53  2  0
 53 54  1  0
 54 55  2  0
 49 56  1  0
 56 57  2  0
  5 58  1  0
 58 59  2  0
 58 60  1  0
 60  2  1  0
 11  6  1  0
 28 12  1  0
 45 29  1  0
 57 46  1  0
 20 16  1  0
 26 21  1  0
 37 33  1  0
 43 38  1  0
 55 51  1  0
M  END
>  <Title>  (519) 
idAATYgen7

$$$$

     RDKit          2D

 15 16  0  0  0  0  0  0  0  0999 V2000
    2.8449    6.6264    0.0000 C   0  0  0  0  0  0  0  0  0  0  0  0
    1.4115    6.1843    0.0000 O   0  0  0  0  0  0  0  0  0  0  0  0
    1.0777    4.7219    0.0000 C   0  0  0  0  0  0  0  0  0  0  0  0
    2.2505    3.7867    0.0000 C   0  0  0  0  0  0  0  0  0  0  0  0
    2.2505    2.2867    0.0000 C   0  0  0  0  0  0  0  0  0  0  0  0
    1.0777    1.3515    0.0000 C   0  0  0  0  0  0  0  0  0  0  0  0
    1.7286    0.0000    0.0000 C   0  0  0  0  0  0  0  0  0  0  0  0
    1.0777   -1.3515    0.0000 C   0  0  0  0  0  0  0  0  0  0  0  0
   -0.3846   -1.6852    0.0000 C   0  0  0  0  0  0  0  0  0  0  0  0
   -1.5574   -0.7500    0.0000 C   0  0  0  0  0  0  0  0  0  0  0  0
   -1.5574    0.7500    0.0000 C   0  0  0  0  0  0  0  0  0  0  0  0
   -0.3846    1.6852    0.0000 C   0  0  0  0  0  0  0  0  0  0  0  0
   -1.0355    3.0367    0.0000 C   0  0  0  0  0  0  0  0  0  0  0  0
   -2.5355    3.0367    0.0000 O   0  0  0  0  0  0  0  0  0  0  0  0
   -0.3846    4.3881    0.0000 N   0  0  0  0  0  0  0  0  0  0  0  0
  1  2  1  0
  2  3  1  0
  3  4  2  0
  4  5  1  0
  5  6  2  0
  6  7  1  0
  7  8  2  0
  8  9  1  0
  9 10  2  0
 10 11  1  0
 11 12  2  0
 12 13  1  0
 13 14  2  0
 13 15  1  0
 15  3  1  0
 12  6  1  0
M  END
>  <Title>  (520) 
idAATZgen7

$$$$

     RDKit          2D

 32 36  0  0  0  0  0  0  0  0999 V2000
    3.0000    0.0000    0.0000 C   0  0  0  0  0  0  0  0  0  0  0  0
    1.5000    0.0000    0.0000 C   0  0  0  0  0  0  0  0  0  0  0  0
    0.7500    1.2990    0.0000 C   0  0  0  0  0  0  0  0  0  0  0  0
   -0.7500    1.2990    0.0000 C   0  0  0  0  0  0  0  0  0  0  0  0
   -1.5000    0.0000    0.0000 C   0  0  0  0  0  0  0  0  0  0  0  0
   -3.0000    0.0000    0.0000 C   0  0  0  0  0  0  0  0  0  0  0  0
   -3.8817   -1.2135    0.0000 N   0  0  0  0  0  0  0  0  0  0  0  0
   -5.3083   -0.7500    0.0000 N   0  0  0  0  0  0  0  0  0  0  0  0
   -5.3083    0.7500    0.0000 N   0  0  0  0  0  0  0  0  0  0  0  0
   -3.8817    1.2135    0.0000 N   0  0  0  0  0  0  0  0  0  0  0  0
   -3.4182    2.6401    0.0000 C   0  0  0  0  0  0  0  0  0  0  0  0
   -1.9509    2.9520    0.0000 C   0  0  0  0  0  0  0  0  0  0  0  0
   -1.4874    4.3786    0.0000 C   0  0  0  0  0  0  0  0  0  0  0  0
   -2.4911    5.4933    0.0000 C   0  0  0  0  0  0  0  0  0  0  0  0
   -2.0276    6.9199    0.0000 C   0  0  0  0  0  0  0  0  0  0  0  0
   -0.5604    7.2317    0.0000 C   0  0  0  0  0  0  0  0  0  0  0  0
   -0.0968    8.6583    0.0000 C   0  0  0  0  0  0  0  0  0  0  0  0
   -1.1005    9.7730    0.0000 C   0  0  0  0  0  0  0  0  0  0  0  0
   -0.6370   11.1996    0.0000 C   0  0  0  0  0  0  0  0  0  0  0  0
    0.8302   11.5115    0.0000 C   0  0  0  0  0  0  0  0  0  0  0  0
    1.2937   12.9381    0.0000 C   0  0  0  0  0  0  0  0  0  0  0  0
    0.2901   14.0528    0.0000 C   0  0  0  0  0  0  0  0  0  0  0  0
   -1.1772   13.7409    0.0000 C   0  0  0  0  0  0  0  0  0  0  0  0
   -1.6407   12.3143    0.0000 C   0  0  0  0  0  0  0  0  0  0  0  0
   -2.5677    9.4612    0.0000 N   0  0  0  0  0  0  0  0  0  0  0  0
   -3.0313    8.0346    0.0000 C   0  0  0  0  0  0  0  0  0  0  0  0
   -4.4985    7.7227    0.0000 O   0  0  0  0  0  0  0  0  0  0  0  0
   -3.9583    5.1814    0.0000 C   0  0  0  0  0  0  0  0  0  0  0  0
   -4.4218    3.7548    0.0000 C   0  0  0  0  0  0  0  0  0  0  0  0
   -0.7500   -1.2990    0.0000 C   0  0  0  0  0  0  0  0  0  0  0  0
   -1.5000   -2.5981    0.0000 O   0  0  0  0  0  0  0  0  0  0  0  0
    0.7500   -1.2990    0.0000 N   0  0  0  0  0  0  0  0  0  0  0  0
  1  2  1  0
  2  3  2  0
  3  4  1  0
  4  5  2  0
  5  6  1  0
  6  7  2  0
  7  8  1  0
  8  9  2  0
  9 10  1  0
 10 11  1  0
 11 12  2  0
 12 13  1  0
 13 14  2  0
 14 15  1  0
 15 16  2  0
 16 17  1  0
 17 18  2  0
 18 19  1  0
 19 20  2  0
 20 21  1  0
 21 22  2  0
 22 23  1  0
 23 24  2  0
 18 25  1  0
 25 26  1  0
 26 27  2  0
 14 28  1  0
 28 29  2  0
  5 30  1  0
 30 31  2  0
 30 32  1  0
 32  2  1  0
 10  6  1  0
 29 11  1  0
 26 15  1  0
 24 19  1  0
M  END
>  <Title>  (521) 
idAAUAgen7

$$$$

     RDKit          2D

  8  8  0  0  0  0  0  0  0  0999 V2000
    3.2286   -0.0000    0.0000 O   0  0  0  0  0  0  0  0  0  0  0  0
    1.7286    0.0000    0.0000 C   0  0  0  0  0  0  0  0  0  0  0  0
    1.0777    1.3515    0.0000 C   0  0  0  0  0  0  0  0  0  0  0  0
   -0.3846    1.6852    0.0000 C   0  0  0  0  0  0  0  0  0  0  0  0
   -1.5574    0.7500    0.0000 C   0  0  0  0  0  0  0  0  0  0  0  0
   -1.5574   -0.7500    0.0000 C   0  0  0  0  0  0  0  0  0  0  0  0
   -0.3846   -1.6852    0.0000 C   0  0  0  0  0  0  0  0  0  0  0  0
    1.0777   -1.3515    0.0000 C   0  0  0  0  0  0  0  0  0  0  0  0
  1  2  1  0
  2  3  2  0
  3  4  1  0
  4  5  2  0
  5  6  1  0
  6  7  2  0
  7  8  1  0
  8  2  1  0
M  END
>  <Title>  (522) 
idAAUBgen7

$$$$

     RDKit          2D

 53 58  0  0  0  0  0  0  0  0999 V2000
   16.9860  -19.6538    0.0000 C   0  0  0  0  0  0  0  0  0  0  0  0
   15.4880  -19.7323    0.0000 C   0  0  0  0  0  0  0  0  0  0  0  0
   14.8070  -21.0688    0.0000 O   0  0  0  0  0  0  0  0  0  0  0  0
   14.6711  -18.4743    0.0000 O   0  0  0  0  0  0  0  0  0  0  0  0
   13.1731  -18.5528    0.0000 C   0  0  0  0  0  0  0  0  0  0  0  0
   12.4921  -19.8893    0.0000 C   0  0  0  0  0  0  0  0  0  0  0  0
   10.9942  -19.9678    0.0000 C   0  0  0  0  0  0  0  0  0  0  0  0
   10.1772  -18.7098    0.0000 C   0  0  0  0  0  0  0  0  0  0  0  0
    8.6793  -18.7883    0.0000 C   0  0  0  0  0  0  0  0  0  0  0  0
    7.9983  -20.1248    0.0000 O   0  0  0  0  0  0  0  0  0  0  0  0
    7.8623  -17.5303    0.0000 N   0  0  0  0  0  0  0  0  0  0  0  0
    6.3644  -17.6088    0.0000 C   0  0  0  0  0  0  0  0  0  0  0  0
    5.5474  -18.8668    0.0000 N   0  0  0  0  0  0  0  0  0  0  0  0
    4.0985  -18.4786    0.0000 N   0  0  0  0  0  0  0  0  0  0  0  0
    4.0200  -16.9807    0.0000 N   0  0  0  0  0  0  0  0  0  0  0  0
    5.4204  -16.4431    0.0000 N   0  0  0  0  0  0  0  0  0  0  0  0
    5.8086  -14.9942    0.0000 C   0  0  0  0  0  0  0  0  0  0  0  0
    7.2575  -14.6060    0.0000 C   0  0  0  0  0  0  0  0  0  0  0  0
    7.6458  -13.1571    0.0000 C   0  0  0  0  0  0  0  0  0  0  0  0
    6.5851  -12.0964    0.0000 C   0  0  0  0  0  0  0  0  0  0  0  0
    6.9733  -10.6476    0.0000 N   0  0  0  0  0  0  0  0  0  0  0  0
    5.9127   -9.5869    0.0000 C   0  0  0  0  0  0  0  0  0  0  0  0
    4.4638   -9.9751    0.0000 O   0  0  0  0  0  0  0  0  0  0  0  0
    6.3009   -8.1380    0.0000 N   0  0  0  0  0  0  0  0  0  0  0  0
    5.2402   -7.0773    0.0000 C   0  0  0  0  0  0  0  0  0  0  0  0
    3.7913   -7.4656    0.0000 C   0  0  0  0  0  0  0  0  0  0  0  0
    2.7307   -6.4049    0.0000 C   0  0  0  0  0  0  0  0  0  0  0  0
    3.1189   -4.9560    0.0000 C   0  0  0  0  0  0  0  0  0  0  0  0
    2.0583   -3.8954    0.0000 C   0  0  0  0  0  0  0  0  0  0  0  0
    2.4465   -2.4465    0.0000 O   0  0  0  0  0  0  0  0  0  0  0  0
    0.6094   -4.2836    0.0000 N   0  0  0  0  0  0  0  0  0  0  0  0
   -0.4513   -3.2229    0.0000 C   0  0  0  0  0  0  0  0  0  0  0  0
   -1.8371   -3.7970    0.0000 N   0  0  0  0  0  0  0  0  0  0  0  0
   -3.2229   -3.2229    0.0000 N   0  0  0  0  0  0  0  0  0  0  0  0
   -3.7970   -1.8371    0.0000 N   0  0  0  0  0  0  0  0  0  0  0  0
   -3.2229   -0.4513    0.0000 N   0  0  0  0  0  0  0  0  0  0  0  0
   -1.8371    0.1227    0.0000 N   0  0  0  0  0  0  0  0  0  0  0  0
   -0.4513   -0.4513    0.0000 N   0  0  0  0  0  0  0  0  0  0  0  0
    0.1227   -1.8371    0.0000 C   0  0  0  0  0  0  0  0  0  0  0  0
    4.5678   -4.5678    0.0000 C   0  0  0  0  0  0  0  0  0  0  0  0
    5.6285   -5.6285    0.0000 C   0  0  0  0  0  0  0  0  0  0  0  0
    7.0773   -5.2402    0.0000 C   0  0  0  0  0  0  0  0  0  0  0  0
    8.1380   -6.3009    0.0000 C   0  0  0  0  0  0  0  0  0  0  0  0
    9.5869   -5.9127    0.0000 C   0  0  0  0  0  0  0  0  0  0  0  0
    9.9751   -4.4638    0.0000 C   0  0  0  0  0  0  0  0  0  0  0  0
    8.9145   -3.4031    0.0000 C   0  0  0  0  0  0  0  0  0  0  0  0
    7.4656   -3.7913    0.0000 C   0  0  0  0  0  0  0  0  0  0  0  0
    5.1362  -12.4847    0.0000 C   0  0  0  0  0  0  0  0  0  0  0  0
    4.0755  -11.4240    0.0000 O   0  0  0  0  0  0  0  0  0  0  0  0
    4.7480  -13.9336    0.0000 N   0  0  0  0  0  0  0  0  0  0  0  0
   10.8582  -17.3733    0.0000 C   0  0  0  0  0  0  0  0  0  0  0  0
   10.0413  -16.1153    0.0000 O   0  0  0  0  0  0  0  0  0  0  0  0
   12.3562  -17.2948    0.0000 N   0  0  0  0  0  0  0  0  0  0  0  0
  1  2  1  0
  2  3  2  0
  2  4  1  0
  4  5  1  0
  5  6  2  0
  6  7  1  0
  7  8  2  0
  8  9  1  0
  9 10  2  0
  9 11  1  0
 11 12  1  0
 12 13  2  0
 13 14  1  0
 14 15  2  0
 15 16  1  0
 16 17  1  0
 17 18  2  0
 18 19  1  0
 19 20  2  0
 20 21  1  0
 21 22  1  0
 22 23  2  0
 22 24  1  0
 24 25  1  0
 25 26  2  0
 26 27  1  0
 27 28  2  0
 28 29  1  0
 29 30  2  0
 29 31  1  0
 31 32  1  0
 32 33  2  0
 33 34  1  0
 34 35  2  0
 35 36  1  0
 36 37  2  0
 37 38  1  0
 38 39  2  0
 28 40  1  0
 40 41  2  0
 41 42  1  0
 42 43  2  0
 43 44  1  0
 44 45  2  0
 45 46  1  0
 46 47  2  0
 20 48  1  0
 48 49  2  0
 48 50  1  0
  8 51  1  0
 51 52  2  0
 51 53  1  0
 53  5  1  0
 16 12  1  0
 50 17  1  0
 41 25  1  0
 47 42  1  0
 39 32  1  0
M  END
>  <Title>  (523) 
idAAUCgen7

$$$$

     RDKit          2D

 22 23  0  0  0  0  0  0  0  0999 V2000
    4.7087   -6.7543    0.0000 C   0  0  0  0  0  0  0  0  0  0  0  0
    5.5420   -5.5071    0.0000 O   0  0  0  0  0  0  0  0  0  0  0  0
    4.8786   -4.1618    0.0000 C   0  0  0  0  0  0  0  0  0  0  0  0
    5.7120   -2.9146    0.0000 C   0  0  0  0  0  0  0  0  0  0  0  0
    5.0485   -1.5693    0.0000 C   0  0  0  0  0  0  0  0  0  0  0  0
    3.5517   -1.4712    0.0000 C   0  0  0  0  0  0  0  0  0  0  0  0
    3.8444    0.0000    0.0000 C   0  0  0  0  0  0  0  0  0  0  0  0
    3.5517    1.4712    0.0000 C   0  0  0  0  0  0  0  0  0  0  0  0
    2.7184    2.7184    0.0000 C   0  0  0  0  0  0  0  0  0  0  0  0
    1.4712    3.5517    0.0000 C   0  0  0  0  0  0  0  0  0  0  0  0
    0.0000    3.8444    0.0000 C   0  0  0  0  0  0  0  0  0  0  0  0
   -1.4712    3.5517    0.0000 C   0  0  0  0  0  0  0  0  0  0  0  0
   -2.7184    2.7184    0.0000 C   0  0  0  0  0  0  0  0  0  0  0  0
   -3.5517    1.4712    0.0000 C   0  0  0  0  0  0  0  0  0  0  0  0
   -3.8444    0.0000    0.0000 C   0  0  0  0  0  0  0  0  0  0  0  0
   -3.5517   -1.4712    0.0000 C   0  0  0  0  0  0  0  0  0  0  0  0
   -2.7184   -2.7184    0.0000 C   0  0  0  0  0  0  0  0  0  0  0  0
   -1.4712   -3.5517    0.0000 C   0  0  0  0  0  0  0  0  0  0  0  0
   -0.0000   -3.8444    0.0000 C   0  0  0  0  0  0  0  0  0  0  0  0
    1.4712   -3.5517    0.0000 C   0  0  0  0  0  0  0  0  0  0  0  0
    2.7184   -2.7184    0.0000 C   0  0  0  0  0  0  0  0  0  0  0  0
    3.3818   -4.0637    0.0000 C   0  0  0  0  0  0  0  0  0  0  0  0
  1  2  1  0
  2  3  1  0
  3  4  2  0
  4  5  1  0
  5  6  2  0
  6  7  1  0
  7  8  2  0
  8  9  1  0
  9 10  2  0
 10 11  1  0
 11 12  2  0
 12 13  1  0
 13 14  2  0
 14 15  1  0
 15 16  2  0
 16 17  1  0
 17 18  2  0
 18 19  1  0
 19 20  2  0
 20 21  1  0
 21 22  2  0
 22  3  1  0
 21  6  1  0
M  END
>  <Title>  (524) 
idAAUDgen7

$$$$

     RDKit          2D

 31 35  0  0  0  0  0  0  0  0999 V2000
    2.7760    0.0000    0.0000 C   0  0  0  0  0  0  0  0  0  0  0  0
    1.2760    0.0000    0.0000 C   0  0  0  0  0  0  0  0  0  0  0  0
    0.3943    1.2135    0.0000 C   0  0  0  0  0  0  0  0  0  0  0  0
   -1.0323    0.7500    0.0000 C   0  0  0  0  0  0  0  0  0  0  0  0
   -1.0323   -0.7500    0.0000 C   0  0  0  0  0  0  0  0  0  0  0  0
   -2.2458   -1.6317    0.0000 C   0  0  0  0  0  0  0  0  0  0  0  0
   -2.2458   -3.1317    0.0000 C   0  0  0  0  0  0  0  0  0  0  0  0
   -3.6724   -3.5952    0.0000 N   0  0  0  0  0  0  0  0  0  0  0  0
   -4.5541   -2.3817    0.0000 N   0  0  0  0  0  0  0  0  0  0  0  0
   -3.6724   -1.1682    0.0000 N   0  0  0  0  0  0  0  0  0  0  0  0
   -4.1359    0.2584    0.0000 C   0  0  0  0  0  0  0  0  0  0  0  0
   -5.5625    0.7220    0.0000 C   0  0  0  0  0  0  0  0  0  0  0  0
   -5.5625    2.2220    0.0000 C   0  0  0  0  0  0  0  0  0  0  0  0
   -4.1359    2.6855    0.0000 C   0  0  0  0  0  0  0  0  0  0  0  0
   -3.6724    4.1121    0.0000 C   0  0  0  0  0  0  0  0  0  0  0  0
   -4.6761    5.2268    0.0000 O   0  0  0  0  0  0  0  0  0  0  0  0
   -2.2052    4.4239    0.0000 N   0  0  0  0  0  0  0  0  0  0  0  0
   -1.7416    5.8505    0.0000 C   0  0  0  0  0  0  0  0  0  0  0  0
   -2.6233    7.0640    0.0000 N   0  0  0  0  0  0  0  0  0  0  0  0
   -1.7416    8.2776    0.0000 N   0  0  0  0  0  0  0  0  0  0  0  0
   -0.3151    7.8140    0.0000 N   0  0  0  0  0  0  0  0  0  0  0  0
   -0.3151    6.3140    0.0000 N   0  0  0  0  0  0  0  0  0  0  0  0
    0.8985    5.4324    0.0000 N   0  0  0  0  0  0  0  0  0  0  0  0
    2.3250    5.8959    0.0000 N   0  0  0  0  0  0  0  0  0  0  0  0
    3.2067    4.6824    0.0000 N   0  0  0  0  0  0  0  0  0  0  0  0
    2.3250    3.4688    0.0000 N   0  0  0  0  0  0  0  0  0  0  0  0
    0.8985    3.9324    0.0000 C   0  0  0  0  0  0  0  0  0  0  0  0
   -0.3151    3.0507    0.0000 C   0  0  0  0  0  0  0  0  0  0  0  0
   -3.2542    1.4720    0.0000 C   0  0  0  0  0  0  0  0  0  0  0  0
   -1.7542    1.4720    0.0000 O   0  0  0  0  0  0  0  0  0  0  0  0
    0.3943   -1.2135    0.0000 C   0  0  0  0  0  0  0  0  0  0  0  0
  1  2  1  0
  2  3  2  0
  3  4  1  0
  4  5  2  0
  5  6  1  0
  6  7  2  0
  7  8  1  0
  8  9  2  0
  9 10  1  0
 10 11  1  0
 11 12  2  0
 12 13  1  0
 13 14  2  0
 14 15  1  0
 15 16  2  0
 15 17  1  0
 17 18  1  0
 18 19  2  0
 19 20  1  0
 20 21  2  0
 21 22  1  0
 22 23  1  0
 23 24  1  0
 24 25  2  0
 25 26  1  0
 26 27  2  0
 27 28  1  0
 14 29  1  0
 29 30  2  0
  5 31  1  0
 31  2  1  0
 10  6  1  0
 29 11  1  0
 22 18  1  0
 27 23  1  0
M  END
>  <Title>  (525) 
idAAUEgen7

$$$$

     RDKit          2D

 20 21  0  0  0  0  0  0  0  0999 V2000
    5.8600    5.1915    0.0000 C   0  0  0  0  0  0  0  0  0  0  0  0
    4.7372    4.1968    0.0000 C   0  0  0  0  0  0  0  0  0  0  0  0
    5.1462    2.7536    0.0000 C   0  0  0  0  0  0  0  0  0  0  0  0
    4.2730    1.5341    0.0000 C   0  0  0  0  0  0  0  0  0  0  0  0
    2.7750    1.4564    0.0000 C   0  0  0  0  0  0  0  0  0  0  0  0
    3.1339    0.0000    0.0000 C   0  0  0  0  0  0  0  0  0  0  0  0
    2.7750   -1.4564    0.0000 C   0  0  0  0  0  0  0  0  0  0  0  0
    1.7803   -2.5792    0.0000 C   0  0  0  0  0  0  0  0  0  0  0  0
    0.3778   -3.1111    0.0000 C   0  0  0  0  0  0  0  0  0  0  0  0
   -1.1113   -2.9303    0.0000 C   0  0  0  0  0  0  0  0  0  0  0  0
   -2.3458   -2.0782    0.0000 C   0  0  0  0  0  0  0  0  0  0  0  0
   -3.0429   -0.7500    0.0000 C   0  0  0  0  0  0  0  0  0  0  0  0
   -3.0429    0.7500    0.0000 C   0  0  0  0  0  0  0  0  0  0  0  0
   -2.3458    2.0782    0.0000 C   0  0  0  0  0  0  0  0  0  0  0  0
   -1.1113    2.9303    0.0000 C   0  0  0  0  0  0  0  0  0  0  0  0
   -1.6432    4.3328    0.0000 C   0  0  0  0  0  0  0  0  0  0  0  0
    0.3778    3.1111    0.0000 C   0  0  0  0  0  0  0  0  0  0  0  0
    1.7803    2.5792    0.0000 C   0  0  0  0  0  0  0  0  0  0  0  0
    2.0379    4.0569    0.0000 C   0  0  0  0  0  0  0  0  0  0  0  0
    3.3539    4.7768    0.0000 C   0  0  0  0  0  0  0  0  0  0  0  0
  1  2  1  0
  2  3  2  0
  3  4  1  0
  4  5  2  0
  5  6  1  0
  6  7  2  0
  7  8  1  0
  8  9  2  0
  9 10  1  0
 10 11  2  0
 11 12  1  0
 12 13  2  0
 13 14  1  0
 14 15  2  0
 15 16  1  0
 15 17  1  0
 17 18  2  0
 18 19  1  0
 19 20  2  0
 20  2  1  0
 18  5  1  0
M  END
>  <Title>  (526) 
idAAUFgen7

$$$$

     RDKit          2D

 19 21  0  0  0  0  0  0  0  0999 V2000
   -1.2990  -10.3573    0.0000 C   0  0  0  0  0  0  0  0  0  0  0  0
    0.0000   -9.6073    0.0000 O   0  0  0  0  0  0  0  0  0  0  0  0
    0.0000   -8.1073    0.0000 C   0  0  0  0  0  0  0  0  0  0  0  0
   -1.2990   -7.3573    0.0000 C   0  0  0  0  0  0  0  0  0  0  0  0
   -1.2990   -5.8573    0.0000 C   0  0  0  0  0  0  0  0  0  0  0  0
   -0.0000   -5.1073    0.0000 C   0  0  0  0  0  0  0  0  0  0  0  0
   -0.0000   -3.6073    0.0000 N   0  0  0  0  0  0  0  0  0  0  0  0
    1.2135   -2.7256    0.0000 N   0  0  0  0  0  0  0  0  0  0  0  0
    0.7500   -1.2990    0.0000 C   0  0  0  0  0  0  0  0  0  0  0  0
    1.5000    0.0000    0.0000 C   0  0  0  0  0  0  0  0  0  0  0  0
    0.7500    1.2990    0.0000 C   0  0  0  0  0  0  0  0  0  0  0  0
   -0.7500    1.2990    0.0000 C   0  0  0  0  0  0  0  0  0  0  0  0
   -1.5000    0.0000    0.0000 C   0  0  0  0  0  0  0  0  0  0  0  0
   -0.7500   -1.2990    0.0000 C   0  0  0  0  0  0  0  0  0  0  0  0
   -1.2135   -2.7256    0.0000 C   0  0  0  0  0  0  0  0  0  0  0  0
   -2.6401   -3.1891    0.0000 O   0  0  0  0  0  0  0  0  0  0  0  0
    1.2990   -5.8573    0.0000 C   0  0  0  0  0  0  0  0  0  0  0  0
    2.5981   -5.1073    0.0000 O   0  0  0  0  0  0  0  0  0  0  0  0
    1.2990   -7.3573    0.0000 N   0  0  0  0  0  0  0  0  0  0  0  0
  1  2  1  0
  2  3  1  0
  3  4  2  0
  4  5  1  0
  5  6  2  0
  6  7  1  0
  7  8  1  0
  8  9  1  0
  9 10  2  0
 10 11  1  0
 11 12  2  0
 12 13  1  0
 13 14  2  0
 14 15  1  0
 15 16  2  0
  6 17  1  0
 17 18  2  0
 17 19  1  0
 19  3  1  0
 15  7  1  0
 14  9  1  0
M  END
>  <Title>  (527) 
idAAUGgen7

$$$$

     RDKit          2D

 34 39  0  0  0  0  0  0  0  0999 V2000
  -10.0478   -0.1686    0.0000 C   0  0  0  0  0  0  0  0  0  0  0  0
   -9.2090    1.0749    0.0000 C   0  0  0  0  0  0  0  0  0  0  0  0
   -9.8665    2.4231    0.0000 C   0  0  0  0  0  0  0  0  0  0  0  0
   -9.0278    3.6667    0.0000 C   0  0  0  0  0  0  0  0  0  0  0  0
   -7.5314    3.5621    0.0000 C   0  0  0  0  0  0  0  0  0  0  0  0
   -6.6926    4.8056    0.0000 C   0  0  0  0  0  0  0  0  0  0  0  0
   -7.2057    6.2151    0.0000 N   0  0  0  0  0  0  0  0  0  0  0  0
   -6.0236    7.1386    0.0000 N   0  0  0  0  0  0  0  0  0  0  0  0
   -4.7801    6.2999    0.0000 N   0  0  0  0  0  0  0  0  0  0  0  0
   -5.1935    4.8580    0.0000 N   0  0  0  0  0  0  0  0  0  0  0  0
   -4.2700    3.6759    0.0000 C   0  0  0  0  0  0  0  0  0  0  0  0
   -4.8320    2.2852    0.0000 C   0  0  0  0  0  0  0  0  0  0  0  0
   -3.9085    1.1032    0.0000 C   0  0  0  0  0  0  0  0  0  0  0  0
   -2.4231    1.3119    0.0000 C   0  0  0  0  0  0  0  0  0  0  0  0
   -3.1273    2.6363    0.0000 C   0  0  0  0  0  0  0  0  0  0  0  0
   -2.8154    4.1036    0.0000 C   0  0  0  0  0  0  0  0  0  0  0  0
   -1.6334    5.0270    0.0000 C   0  0  0  0  0  0  0  0  0  0  0  0
   -0.1343    4.9747    0.0000 C   0  0  0  0  0  0  0  0  0  0  0  0
    0.9804    3.9710    0.0000 C   0  0  0  0  0  0  0  0  0  0  0  0
    1.1892    2.4856    0.0000 C   0  0  0  0  0  0  0  0  0  0  0  0
    2.6564    2.1737    0.0000 C   0  0  0  0  0  0  0  0  0  0  0  0
    3.6601    3.2884    0.0000 C   0  0  0  0  0  0  0  0  0  0  0  0
    5.1273    2.9766    0.0000 C   0  0  0  0  0  0  0  0  0  0  0  0
    6.2420    3.9803    0.0000 C   0  0  0  0  0  0  0  0  0  0  0  0
    7.5411    3.2303    0.0000 C   0  0  0  0  0  0  0  0  0  0  0  0
    7.2292    1.7631    0.0000 N   0  0  0  0  0  0  0  0  0  0  0  0
    5.7374    1.6063    0.0000 C   0  0  0  0  0  0  0  0  0  0  0  0
    0.3943    1.2135    0.0000 N   0  0  0  0  0  0  0  0  0  0  0  0
    1.2760    0.0000    0.0000 N   0  0  0  0  0  0  0  0  0  0  0  0
    0.3943   -1.2135    0.0000 N   0  0  0  0  0  0  0  0  0  0  0  0
   -1.0323   -0.7500    0.0000 C   0  0  0  0  0  0  0  0  0  0  0  0
   -1.0323    0.7500    0.0000 C   0  0  0  0  0  0  0  0  0  0  0  0
   -6.8739    2.2139    0.0000 N   0  0  0  0  0  0  0  0  0  0  0  0
   -7.7126    0.9703    0.0000 N   0  0  0  0  0  0  0  0  0  0  0  0
  1  2  1  0
  2  3  2  0
  3  4  1  0
  4  5  2  0
  5  6  1  0
  6  7  2  0
  7  8  1  0
  8  9  2  0
  9 10  1  0
 10 11  1  0
 11 12  2  0
 12 13  1  0
 13 14  2  0
 14 15  1  0
 15 16  2  0
 16 17  1  0
 17 18  1  0
 18 19  2  0
 19 20  1  0
 20 21  2  3
 21 22  1  0
 22 23  2  3
 23 24  1  0
 24 25  2  0
 25 26  1  0
 26 27  2  0
 20 28  1  0
 28 29  1  0
 29 30  2  0
 30 31  1  0
 31 32  2  0
  5 33  1  0
 33 34  2  0
 34  2  1  0
 10  6  1  0
 16 11  1  0
 27 23  1  0
 32 28  1  0
 32 14  1  0
M  END
>  <Title>  (528) 
idAAUHgen7

$$$$

     RDKit          2D

 16 17  0  0  0  0  0  0  0  0999 V2000
   -0.0658    8.0735    0.0000 C   0  0  0  0  0  0  0  0  0  0  0  0
   -0.8796    6.8135    0.0000 O   0  0  0  0  0  0  0  0  0  0  0  0
   -0.1953    5.4786    0.0000 C   0  0  0  0  0  0  0  0  0  0  0  0
    1.2930    5.6652    0.0000 C   0  0  0  0  0  0  0  0  0  0  0  0
    2.5531    4.8513    0.0000 C   0  0  0  0  0  0  0  0  0  0  0  0
    2.9952    3.4180    0.0000 C   0  0  0  0  0  0  0  0  0  0  0  0
    2.4126    2.0358    0.0000 C   0  0  0  0  0  0  0  0  0  0  0  0
    1.0777    1.3515    0.0000 C   0  0  0  0  0  0  0  0  0  0  0  0
    1.7286    0.0000    0.0000 C   0  0  0  0  0  0  0  0  0  0  0  0
    1.0777   -1.3515    0.0000 C   0  0  0  0  0  0  0  0  0  0  0  0
   -0.3846   -1.6852    0.0000 C   0  0  0  0  0  0  0  0  0  0  0  0
   -1.5574   -0.7500    0.0000 C   0  0  0  0  0  0  0  0  0  0  0  0
   -1.5574    0.7500    0.0000 C   0  0  0  0  0  0  0  0  0  0  0  0
   -0.3846    1.6852    0.0000 C   0  0  0  0  0  0  0  0  0  0  0  0
   -1.2904    2.8809    0.0000 C   0  0  0  0  0  0  0  0  0  0  0  0
   -1.2156    4.3791    0.0000 C   0  0  0  0  0  0  0  0  0  0  0  0
  1  2  1  0
  2  3  1  0
  3  4  2  0
  4  5  1  0
  5  6  2  0
  6  7  1  0
  7  8  2  0
  8  9  1  0
  9 10  2  0
 10 11  1  0
 11 12  2  0
 12 13  1  0
 13 14  2  0
 14 15  1  0
 15 16  2  0
 16  3  1  0
 14  8  1  0
M  END
>  <Title>  (529) 
idAAUIgen7

$$$$

     RDKit          2D

 37 42  0  0  0  0  0  0  0  0999 V2000
    3.0000    0.0000    0.0000 C   0  0  0  0  0  0  0  0  0  0  0  0
    1.5000    0.0000    0.0000 C   0  0  0  0  0  0  0  0  0  0  0  0
    0.7500   -1.2990    0.0000 C   0  0  0  0  0  0  0  0  0  0  0  0
   -0.7500   -1.2990    0.0000 C   0  0  0  0  0  0  0  0  0  0  0  0
   -1.5000    0.0000    0.0000 C   0  0  0  0  0  0  0  0  0  0  0  0
   -3.0000    0.0000    0.0000 C   0  0  0  0  0  0  0  0  0  0  0  0
   -3.8817   -1.2135    0.0000 N   0  0  0  0  0  0  0  0  0  0  0  0
   -5.3083   -0.7500    0.0000 N   0  0  0  0  0  0  0  0  0  0  0  0
   -5.3083    0.7500    0.0000 N   0  0  0  0  0  0  0  0  0  0  0  0
   -3.8817    1.2135    0.0000 N   0  0  0  0  0  0  0  0  0  0  0  0
   -3.4182    2.6401    0.0000 C   0  0  0  0  0  0  0  0  0  0  0  0
   -1.9509    2.9520    0.0000 C   0  0  0  0  0  0  0  0  0  0  0  0
   -1.4874    4.3786    0.0000 C   0  0  0  0  0  0  0  0  0  0  0  0
   -2.4911    5.4933    0.0000 C   0  0  0  0  0  0  0  0  0  0  0  0
   -2.0276    6.9199    0.0000 C   0  0  0  0  0  0  0  0  0  0  0  0
   -0.5604    7.2317    0.0000 C   0  0  0  0  0  0  0  0  0  0  0  0
   -0.0968    8.6583    0.0000 C   0  0  0  0  0  0  0  0  0  0  0  0
   -1.1005    9.7730    0.0000 C   0  0  0  0  0  0  0  0  0  0  0  0
   -2.5677    9.4612    0.0000 C   0  0  0  0  0  0  0  0  0  0  0  0
   -3.0313    8.0346    0.0000 C   0  0  0  0  0  0  0  0  0  0  0  0
   -3.9583    5.1814    0.0000 C   0  0  0  0  0  0  0  0  0  0  0  0
   -4.4218    3.7548    0.0000 C   0  0  0  0  0  0  0  0  0  0  0  0
   -5.8891    3.4430    0.0000 C   0  0  0  0  0  0  0  0  0  0  0  0
   -6.4992    2.0726    0.0000 C   0  0  0  0  0  0  0  0  0  0  0  0
   -7.9910    2.2294    0.0000 C   0  0  0  0  0  0  0  0  0  0  0  0
   -8.3028    3.6967    0.0000 C   0  0  0  0  0  0  0  0  0  0  0  0
   -9.6731    4.3068    0.0000 C   0  0  0  0  0  0  0  0  0  0  0  0
   -9.8299    5.7985    0.0000 C   0  0  0  0  0  0  0  0  0  0  0  0
  -11.2003    6.4086    0.0000 C   0  0  0  0  0  0  0  0  0  0  0  0
  -12.4138    5.5270    0.0000 C   0  0  0  0  0  0  0  0  0  0  0  0
  -12.2570    4.0352    0.0000 C   0  0  0  0  0  0  0  0  0  0  0  0
  -10.8867    3.4251    0.0000 C   0  0  0  0  0  0  0  0  0  0  0  0
   -7.0038    4.4467    0.0000 C   0  0  0  0  0  0  0  0  0  0  0  0
   -6.8470    5.9384    0.0000 O   0  0  0  0  0  0  0  0  0  0  0  0
   -0.7500    1.2990    0.0000 N   0  0  0  0  0  0  0  0  0  0  0  0
    0.7500    1.2990    0.0000 C   0  0  0  0  0  0  0  0  0  0  0  0
    1.5000    2.5981    0.0000 O   0  0  0  0  0  0  0  0  0  0  0  0
  1  2  1  0
  2  3  2  0
  3  4  1  0
  4  5  2  0
  5  6  1  0
  6  7  2  0
  7  8  1  0
  8  9  2  0
  9 10  1  0
 10 11  1  0
 11 12  2  0
 12 13  1  0
 13 14  2  0
 14 15  1  0
 15 16  2  0
 16 17  1  0
 17 18  2  0
 18 19  1  0
 19 20  2  0
 14 21  1  0
 21 22  2  0
 22 23  1  0
 23 24  2  0
 24 25  1  0
 25 26  2  0
 26 27  1  0
 27 28  2  0
 28 29  1  0
 29 30  2  0
 30 31  1  0
 31 32  2  0
 26 33  1  0
 33 34  2  0
  5 35  1  0
 35 36  1  0
 36 37  2  0
 36  2  1  0
 10  6  1  0
 22 11  1  0
 33 23  1  0
 20 15  1  0
 32 27  1  0
M  END
>  <Title>  (530) 
idAAUJgen7

$$$$

     RDKit          2D

  9  9  0  0  0  0  0  0  0  0999 V2000
    3.9786   -1.2990    0.0000 C   0  0  0  0  0  0  0  0  0  0  0  0
    3.2286   -0.0000    0.0000 O   0  0  0  0  0  0  0  0  0  0  0  0
    1.7286    0.0000    0.0000 C   0  0  0  0  0  0  0  0  0  0  0  0
    1.0777    1.3515    0.0000 C   0  0  0  0  0  0  0  0  0  0  0  0
   -0.3846    1.6852    0.0000 C   0  0  0  0  0  0  0  0  0  0  0  0
   -1.5574    0.7500    0.0000 C   0  0  0  0  0  0  0  0  0  0  0  0
   -1.5574   -0.7500    0.0000 C   0  0  0  0  0  0  0  0  0  0  0  0
   -0.3846   -1.6852    0.0000 C   0  0  0  0  0  0  0  0  0  0  0  0
    1.0777   -1.3515    0.0000 C   0  0  0  0  0  0  0  0  0  0  0  0
  1  2  1  0
  2  3  1  0
  3  4  1  0
  4  5  1  0
  5  6  1  0
  6  7  1  0
  7  8  1  0
  8  9  1  0
  9  3  1  0
M  END
>  <Title>  (531) 
idAAUKgen7

$$$$

     RDKit          2D

 11 12  0  0  0  0  0  0  0  0999 V2000
   -1.7979    5.5335    0.0000 O   0  0  0  0  0  0  0  0  0  0  0  0
   -1.3344    4.1069    0.0000 C   0  0  0  0  0  0  0  0  0  0  0  0
    0.1520    3.9056    0.0000 C   0  0  0  0  0  0  0  0  0  0  0  0
    0.9214    2.6179    0.0000 C   0  0  0  0  0  0  0  0  0  0  0  0
    0.3943    1.2135    0.0000 C   0  0  0  0  0  0  0  0  0  0  0  0
    1.2760    0.0000    0.0000 C   0  0  0  0  0  0  0  0  0  0  0  0
    0.3943   -1.2135    0.0000 C   0  0  0  0  0  0  0  0  0  0  0  0
   -1.0323   -0.7500    0.0000 C   0  0  0  0  0  0  0  0  0  0  0  0
   -1.0323    0.7500    0.0000 C   0  0  0  0  0  0  0  0  0  0  0  0
   -2.2841    1.5763    0.0000 N   0  0  0  0  0  0  0  0  0  0  0  0
   -2.4186    3.0703    0.0000 N   0  0  0  0  0  0  0  0  0  0  0  0
  1  2  1  0
  2  3  2  0
  3  4  1  0
  4  5  2  0
  5  6  1  0
  6  7  2  0
  7  8  1  0
  8  9  2  0
  9 10  1  0
 10 11  2  0
 11  2  1  0
  9  5  1  0
M  END
>  <Title>  (532) 
idAAULgen7

$$$$

     RDKit          2D

 50 57  0  0  0  0  0  0  0  0999 V2000
   -5.8674  -16.8982    0.0000 C   0  0  0  0  0  0  0  0  0  0  0  0
   -4.8254  -15.8192    0.0000 O   0  0  0  0  0  0  0  0  0  0  0  0
   -5.2389  -14.3773    0.0000 C   0  0  0  0  0  0  0  0  0  0  0  0
   -6.6943  -14.0144    0.0000 C   0  0  0  0  0  0  0  0  0  0  0  0
   -7.1078  -12.5725    0.0000 C   0  0  0  0  0  0  0  0  0  0  0  0
   -6.0658  -11.4935    0.0000 C   0  0  0  0  0  0  0  0  0  0  0  0
   -6.4792  -10.0516    0.0000 C   0  0  0  0  0  0  0  0  0  0  0  0
   -7.9347   -9.6888    0.0000 C   0  0  0  0  0  0  0  0  0  0  0  0
   -9.0838  -10.6529    0.0000 C   0  0  0  0  0  0  0  0  0  0  0  0
  -10.3558   -9.8581    0.0000 N   0  0  0  0  0  0  0  0  0  0  0  0
   -9.9929   -8.4026    0.0000 N   0  0  0  0  0  0  0  0  0  0  0  0
   -8.4966   -8.2980    0.0000 N   0  0  0  0  0  0  0  0  0  0  0  0
   -7.7017   -7.0259    0.0000 C   0  0  0  0  0  0  0  0  0  0  0  0
   -6.2026   -7.0783    0.0000 C   0  0  0  0  0  0  0  0  0  0  0  0
   -5.4077   -5.8062    0.0000 C   0  0  0  0  0  0  0  0  0  0  0  0
   -6.1120   -4.4818    0.0000 C   0  0  0  0  0  0  0  0  0  0  0  0
   -5.3171   -3.2097    0.0000 C   0  0  0  0  0  0  0  0  0  0  0  0
   -3.8499   -3.5216    0.0000 C   0  0  0  0  0  0  0  0  0  0  0  0
   -2.5254   -2.8174    0.0000 C   0  0  0  0  0  0  0  0  0  0  0  0
   -1.9635   -1.4266    0.0000 C   0  0  0  0  0  0  0  0  0  0  0  0
   -0.7500   -2.3083    0.0000 C   0  0  0  0  0  0  0  0  0  0  0  0
    0.7500   -2.3083    0.0000 C   0  0  0  0  0  0  0  0  0  0  0  0
    1.2135   -3.7348    0.0000 C   0  0  0  0  0  0  0  0  0  0  0  0
    0.3318   -4.9484    0.0000 N   0  0  0  0  0  0  0  0  0  0  0  0
    1.2135   -6.1619    0.0000 N   0  0  0  0  0  0  0  0  0  0  0  0
    2.6401   -5.6984    0.0000 N   0  0  0  0  0  0  0  0  0  0  0  0
    2.6401   -4.1984    0.0000 N   0  0  0  0  0  0  0  0  0  0  0  0
    3.8536   -3.3167    0.0000 C   0  0  0  0  0  0  0  0  0  0  0  0
    5.2240   -3.9268    0.0000 C   0  0  0  0  0  0  0  0  0  0  0  0
    6.4375   -3.0451    0.0000 C   0  0  0  0  0  0  0  0  0  0  0  0
    6.2807   -1.5533    0.0000 C   0  0  0  0  0  0  0  0  0  0  0  0
    4.9104   -0.9432    0.0000 C   0  0  0  0  0  0  0  0  0  0  0  0
    3.6968   -1.8249    0.0000 C   0  0  0  0  0  0  0  0  0  0  0  0
    1.9635   -1.4266    0.0000 C   0  0  0  0  0  0  0  0  0  0  0  0
    2.4271    0.0000    0.0000 C   0  0  0  0  0  0  0  0  0  0  0  0
    1.9635    1.4266    0.0000 C   0  0  0  0  0  0  0  0  0  0  0  0
    0.7500    2.3083    0.0000 C   0  0  0  0  0  0  0  0  0  0  0  0
   -0.7500    2.3083    0.0000 C   0  0  0  0  0  0  0  0  0  0  0  0
   -1.9635    1.4266    0.0000 C   0  0  0  0  0  0  0  0  0  0  0  0
   -2.4271    0.0000    0.0000 C   0  0  0  0  0  0  0  0  0  0  0  0
   -3.6991    0.7949    0.0000 N   0  0  0  0  0  0  0  0  0  0  0  0
   -5.1845    0.5861    0.0000 N   0  0  0  0  0  0  0  0  0  0  0  0
   -6.1882   -0.5286    0.0000 N   0  0  0  0  0  0  0  0  0  0  0  0
   -6.2406   -2.0277    0.0000 N   0  0  0  0  0  0  0  0  0  0  0  0
   -7.6110   -4.4294    0.0000 C   0  0  0  0  0  0  0  0  0  0  0  0
   -8.3153   -3.1050    0.0000 O   0  0  0  0  0  0  0  0  0  0  0  0
   -8.4059   -5.7015    0.0000 N   0  0  0  0  0  0  0  0  0  0  0  0
   -4.6103  -11.8564    0.0000 C   0  0  0  0  0  0  0  0  0  0  0  0
   -3.5684  -10.7774    0.0000 O   0  0  0  0  0  0  0  0  0  0  0  0
   -4.1969  -13.2983    0.0000 N   0  0  0  0  0  0  0  0  0  0  0  0
  1  2  1  0
  2  3  1  0
  3  4  2  0
  4  5  1  0
  5  6  2  0
  6  7  1  0
  7  8  1  0
  8  9  2  0
  9 10  1  0
 10 11  2  0
 11 12  1  0
 12 13  1  0
 13 14  2  0
 14 15  1  0
 15 16  2  0
 16 17  1  0
 17 18  2  0
 18 19  1  0
 19 20  2  0
 20 21  1  0
 21 22  2  0
 22 23  1  0
 23 24  2  0
 24 25  1  0
 25 26  2  0
 26 27  1  0
 27 28  1  0
 28 29  2  0
 29 30  1  0
 30 31  2  0
 31 32  1  0
 32 33  2  0
 22 34  1  0
 34 35  2  0
 35 36  1  0
 36 37  2  0
 37 38  1  0
 38 39  2  0
 39 40  1  0
 40 41  2  0
 41 42  1  0
 42 43  2  0
 43 44  1  0
 16 45  1  0
 45 46  2  0
 45 47  1  0
  6 48  1  0
 48 49  2  0
 48 50  1  0
 50  3  1  0
 12  8  1  0
 47 13  1  0
 44 17  1  0
 40 20  1  0
 27 23  1  0
 33 28  1  0
 44 34  1  0
M  END
>  <Title>  (533) 
idAAUMgen7

$$$$

     RDKit          2D

 39 42  0  0  0  0  0  0  0  0999 V2000
    3.7500   -1.2990    0.0000 C   0  0  0  0  0  0  0  0  0  0  0  0
    3.0000    0.0000    0.0000 O   0  0  0  0  0  0  0  0  0  0  0  0
    1.5000    0.0000    0.0000 C   0  0  0  0  0  0  0  0  0  0  0  0
    0.7500   -1.2990    0.0000 C   0  0  0  0  0  0  0  0  0  0  0  0
   -0.7500   -1.2990    0.0000 C   0  0  0  0  0  0  0  0  0  0  0  0
   -1.5000    0.0000    0.0000 C   0  0  0  0  0  0  0  0  0  0  0  0
   -3.0000    0.0000    0.0000 N   0  0  0  0  0  0  0  0  0  0  0  0
   -3.8817   -1.2135    0.0000 N   0  0  0  0  0  0  0  0  0  0  0  0
   -5.3083   -0.7500    0.0000 N   0  0  0  0  0  0  0  0  0  0  0  0
   -5.3083    0.7500    0.0000 N   0  0  0  0  0  0  0  0  0  0  0  0
   -3.8817    1.2135    0.0000 C   0  0  0  0  0  0  0  0  0  0  0  0
   -3.4182    2.6401    0.0000 C   0  0  0  0  0  0  0  0  0  0  0  0
   -4.4218    3.7548    0.0000 C   0  0  0  0  0  0  0  0  0  0  0  0
   -3.9583    5.1814    0.0000 C   0  0  0  0  0  0  0  0  0  0  0  0
   -4.9620    6.2961    0.0000 N   0  0  0  0  0  0  0  0  0  0  0  0
   -4.4985    7.7227    0.0000 C   0  0  0  0  0  0  0  0  0  0  0  0
   -3.0313    8.0346    0.0000 O   0  0  0  0  0  0  0  0  0  0  0  0
   -5.5022    8.8374    0.0000 N   0  0  0  0  0  0  0  0  0  0  0  0
   -5.0387   10.2640    0.0000 C   0  0  0  0  0  0  0  0  0  0  0  0
   -3.6121   10.7275    0.0000 N   0  0  0  0  0  0  0  0  0  0  0  0
   -3.6121   12.2275    0.0000 N   0  0  0  0  0  0  0  0  0  0  0  0
   -5.0387   12.6911    0.0000 N   0  0  0  0  0  0  0  0  0  0  0  0
   -5.9203   11.4775    0.0000 N   0  0  0  0  0  0  0  0  0  0  0  0
   -7.4203   11.4775    0.0000 C   0  0  0  0  0  0  0  0  0  0  0  0
   -8.1703   12.7766    0.0000 C   0  0  0  0  0  0  0  0  0  0  0  0
   -9.6703   12.7766    0.0000 C   0  0  0  0  0  0  0  0  0  0  0  0
  -10.4203   11.4775    0.0000 C   0  0  0  0  0  0  0  0  0  0  0  0
  -11.9203   11.4775    0.0000 C   0  0  0  0  0  0  0  0  0  0  0  0
  -12.6703   10.1785    0.0000 O   0  0  0  0  0  0  0  0  0  0  0  0
  -12.6703   12.7766    0.0000 N   0  0  0  0  0  0  0  0  0  0  0  0
  -14.1703   12.7766    0.0000 C   0  0  0  0  0  0  0  0  0  0  0  0
  -14.9203   14.0756    0.0000 C   0  0  0  0  0  0  0  0  0  0  0  0
  -14.1703   15.3747    0.0000 O   0  0  0  0  0  0  0  0  0  0  0  0
  -16.4203   14.0756    0.0000 C   0  0  0  0  0  0  0  0  0  0  0  0
  -17.1703   15.3747    0.0000 O   0  0  0  0  0  0  0  0  0  0  0  0
   -9.6703   10.1785    0.0000 C   0  0  0  0  0  0  0  0  0  0  0  0
   -8.1703   10.1785    0.0000 C   0  0  0  0  0  0  0  0  0  0  0  0
   -0.7500    1.2990    0.0000 C   0  0  0  0  0  0  0  0  0  0  0  0
    0.7500    1.2990    0.0000 C   0  0  0  0  0  0  0  0  0  0  0  0
  1  2  1  0
  2  3  1  0
  3  4  2  0
  4  5  1  0
  5  6  2  0
  6  7  1  0
  7  8  1  0
  8  9  2  0
  9 10  1  0
 10 11  2  0
 11 12  1  0
 12 13  1  0
 13 14  1  0
 14 15  1  0
 15 16  1  0
 16 17  2  0
 16 18  1  0
 18 19  1  0
 19 20  2  0
 20 21  1  0
 21 22  2  0
 22 23  1  0
 23 24  1  0
 24 25  2  0
 25 26  1  0
 26 27  2  0
 27 28  1  0
 28 29  2  0
 28 30  1  0
 30 31  1  0
 31 32  1  0
 32 33  1  0
 32 34  1  0
 34 35  1  0
 27 36  1  0
 36 37  2  0
  6 38  1  0
 38 39  2  0
 39  3  1  0
 11  7  1  0
 23 19  1  0
 37 24  1  0
M  END
>  <Title>  (534) 
idAAUNgen7

$$$$

     RDKit          2D

 37 41  0  0  0  0  0  0  0  0999 V2000
    3.0000    0.0000    0.0000 C   0  0  0  0  0  0  0  0  0  0  0  0
    1.5000    0.0000    0.0000 C   0  0  0  0  0  0  0  0  0  0  0  0
    0.7500   -1.2990    0.0000 C   0  0  0  0  0  0  0  0  0  0  0  0
   -0.7500   -1.2990    0.0000 C   0  0  0  0  0  0  0  0  0  0  0  0
   -1.5000    0.0000    0.0000 C   0  0  0  0  0  0  0  0  0  0  0  0
   -3.0000    0.0000    0.0000 C   0  0  0  0  0  0  0  0  0  0  0  0
   -3.7500   -1.2990    0.0000 O   0  0  0  0  0  0  0  0  0  0  0  0
   -3.7500    1.2990    0.0000 N   0  0  0  0  0  0  0  0  0  0  0  0
   -5.2500    1.2990    0.0000 C   0  0  0  0  0  0  0  0  0  0  0  0
   -6.1317    0.0855    0.0000 N   0  0  0  0  0  0  0  0  0  0  0  0
   -7.5583    0.5490    0.0000 N   0  0  0  0  0  0  0  0  0  0  0  0
   -7.5583    2.0490    0.0000 N   0  0  0  0  0  0  0  0  0  0  0  0
   -6.1317    2.5126    0.0000 N   0  0  0  0  0  0  0  0  0  0  0  0
   -5.6682    3.9391    0.0000 C   0  0  0  0  0  0  0  0  0  0  0  0
   -4.2009    4.2510    0.0000 C   0  0  0  0  0  0  0  0  0  0  0  0
   -3.7374    5.6776    0.0000 C   0  0  0  0  0  0  0  0  0  0  0  0
   -4.7411    6.7923    0.0000 C   0  0  0  0  0  0  0  0  0  0  0  0
   -4.2776    8.2189    0.0000 C   0  0  0  0  0  0  0  0  0  0  0  0
   -5.2813    9.3336    0.0000 O   0  0  0  0  0  0  0  0  0  0  0  0
   -2.8104    8.5308    0.0000 N   0  0  0  0  0  0  0  0  0  0  0  0
   -2.3468    9.9574    0.0000 C   0  0  0  0  0  0  0  0  0  0  0  0
   -3.2285   11.1709    0.0000 N   0  0  0  0  0  0  0  0  0  0  0  0
   -2.3468   12.3844    0.0000 N   0  0  0  0  0  0  0  0  0  0  0  0
   -0.9202   11.9209    0.0000 N   0  0  0  0  0  0  0  0  0  0  0  0
   -0.9202   10.4209    0.0000 N   0  0  0  0  0  0  0  0  0  0  0  0
    0.2933    9.5392    0.0000 C   0  0  0  0  0  0  0  0  0  0  0  0
    0.1365    8.0474    0.0000 C   0  0  0  0  0  0  0  0  0  0  0  0
    1.3500    7.1657    0.0000 C   0  0  0  0  0  0  0  0  0  0  0  0
    2.7203    7.7758    0.0000 C   0  0  0  0  0  0  0  0  0  0  0  0
    2.8771    9.2676    0.0000 C   0  0  0  0  0  0  0  0  0  0  0  0
    1.6636   10.1493    0.0000 C   0  0  0  0  0  0  0  0  0  0  0  0
   -6.2083    6.4805    0.0000 C   0  0  0  0  0  0  0  0  0  0  0  0
   -7.2120    7.5952    0.0000 C   0  0  0  0  0  0  0  0  0  0  0  0
   -6.6718    5.0539    0.0000 C   0  0  0  0  0  0  0  0  0  0  0  0
   -0.7500    1.2990    0.0000 C   0  0  0  0  0  0  0  0  0  0  0  0
   -1.5000    2.5981    0.0000 O   0  0  0  0  0  0  0  0  0  0  0  0
    0.7500    1.2990    0.0000 N   0  0  0  0  0  0  0  0  0  0  0  0
  1  2  1  0
  2  3  2  0
  3  4  1  0
  4  5  2  0
  5  6  1  0
  6  7  2  0
  6  8  1  0
  8  9  1  0
  9 10  2  0
 10 11  1  0
 11 12  2  0
 12 13  1  0
 13 14  1  0
 14 15  2  0
 15 16  1  0
 16 17  2  0
 17 18  1  0
 18 19  2  0
 18 20  1  0
 20 21  1  0
 21 22  2  0
 22 23  1  0
 23 24  2  0
 24 25  1  0
 25 26  1  0
 26 27  2  0
 27 28  1  0
 28 29  2  0
 29 30  1  0
 30 31  2  0
 17 32  1  0
 32 33  1  0
 32 34  2  0
  5 35  1  0
 35 36  2  0
 35 37  1  0
 37  2  1  0
 13  9  1  0
 34 14  1  0
 25 21  1  0
 31 26  1  0
M  END
>  <Title>  (535) 
idAAUOgen7

$$$$

     RDKit          2D

 41 47  0  0  0  0  0  0  0  0999 V2000
   -2.1129  -11.1403    0.0000 C   0  0  0  0  0  0  0  0  0  0  0  0
   -3.5684  -10.7774    0.0000 C   0  0  0  0  0  0  0  0  0  0  0  0
   -4.6103  -11.8564    0.0000 C   0  0  0  0  0  0  0  0  0  0  0  0
   -6.0658  -11.4935    0.0000 C   0  0  0  0  0  0  0  0  0  0  0  0
   -6.4792  -10.0516    0.0000 C   0  0  0  0  0  0  0  0  0  0  0  0
   -7.9347   -9.6888    0.0000 C   0  0  0  0  0  0  0  0  0  0  0  0
   -9.0838  -10.6529    0.0000 N   0  0  0  0  0  0  0  0  0  0  0  0
  -10.3558   -9.8581    0.0000 N   0  0  0  0  0  0  0  0  0  0  0  0
   -9.9929   -8.4026    0.0000 N   0  0  0  0  0  0  0  0  0  0  0  0
   -8.4966   -8.2980    0.0000 N   0  0  0  0  0  0  0  0  0  0  0  0
   -7.7017   -7.0259    0.0000 C   0  0  0  0  0  0  0  0  0  0  0  0
   -6.2026   -7.0783    0.0000 C   0  0  0  0  0  0  0  0  0  0  0  0
   -5.4077   -5.8062    0.0000 C   0  0  0  0  0  0  0  0  0  0  0  0
   -6.1120   -4.4818    0.0000 C   0  0  0  0  0  0  0  0  0  0  0  0
   -5.3171   -3.2097    0.0000 C   0  0  0  0  0  0  0  0  0  0  0  0
   -3.8499   -3.5216    0.0000 C   0  0  0  0  0  0  0  0  0  0  0  0
   -2.5254   -2.8174    0.0000 C   0  0  0  0  0  0  0  0  0  0  0  0
   -1.9635   -1.4266    0.0000 C   0  0  0  0  0  0  0  0  0  0  0  0
   -0.7500   -2.3083    0.0000 C   0  0  0  0  0  0  0  0  0  0  0  0
    0.7500   -2.3083    0.0000 C   0  0  0  0  0  0  0  0  0  0  0  0
    1.2135   -3.7348    0.0000 C   0  0  0  0  0  0  0  0  0  0  0  0
    0.2098   -4.8496    0.0000 C   0  0  0  0  0  0  0  0  0  0  0  0
    0.6734   -6.2761    0.0000 C   0  0  0  0  0  0  0  0  0  0  0  0
    2.1406   -6.5880    0.0000 C   0  0  0  0  0  0  0  0  0  0  0  0
    3.1443   -5.4733    0.0000 C   0  0  0  0  0  0  0  0  0  0  0  0
    2.6807   -4.0467    0.0000 C   0  0  0  0  0  0  0  0  0  0  0  0
    1.9635   -1.4266    0.0000 C   0  0  0  0  0  0  0  0  0  0  0  0
    2.4271    0.0000    0.0000 C   0  0  0  0  0  0  0  0  0  0  0  0
    1.9635    1.4266    0.0000 C   0  0  0  0  0  0  0  0  0  0  0  0
    0.7500    2.3083    0.0000 C   0  0  0  0  0  0  0  0  0  0  0  0
   -0.7500    2.3083    0.0000 C   0  0  0  0  0  0  0  0  0  0  0  0
   -1.9635    1.4266    0.0000 C   0  0  0  0  0  0  0  0  0  0  0  0
   -2.4271    0.0000    0.0000 C   0  0  0  0  0  0  0  0  0  0  0  0
   -3.6991    0.7949    0.0000 N   0  0  0  0  0  0  0  0  0  0  0  0
   -5.1845    0.5861    0.0000 N   0  0  0  0  0  0  0  0  0  0  0  0
   -6.1882   -0.5286    0.0000 N   0  0  0  0  0  0  0  0  0  0  0  0
   -6.2406   -2.0277    0.0000 N   0  0  0  0  0  0  0  0  0  0  0  0
   -7.6110   -4.4294    0.0000 C   0  0  0  0  0  0  0  0  0  0  0  0
   -8.4059   -5.7015    0.0000 C   0  0  0  0  0  0  0  0  0  0  0  0
   -5.4373   -8.9726    0.0000 C   0  0  0  0  0  0  0  0  0  0  0  0
   -3.9818   -9.3355    0.0000 C   0  0  0  0  0  0  0  0  0  0  0  0
  1  2  1  0
  2  3  2  0
  3  4  1  0
  4  5  2  0
  5  6  1  0
  6  7  2  0
  7  8  1  0
  8  9  2  0
  9 10  1  0
 10 11  1  0
 11 12  2  0
 12 13  1  0
 13 14  2  0
 14 15  1  0
 15 16  2  0
 16 17  1  0
 17 18  2  0
 18 19  1  0
 19 20  2  0
 20 21  1  0
 21 22  2  0
 22 23  1  0
 23 24  2  0
 24 25  1  0
 25 26  2  0
 20 27  1  0
 27 28  2  0
 28 29  1  0
 29 30  2  0
 30 31  1  0
 31 32  2  0
 32 33  1  0
 33 34  2  0
 34 35  1  0
 35 36  2  0
 36 37  1  0
 14 38  1  0
 38 39  2  0
  5 40  1  0
 40 41  2  0
 41  2  1  0
 10  6  1  0
 39 11  1  0
 37 15  1  0
 33 18  1  0
 26 21  1  0
 37 27  1  0
M  END
>  <Title>  (536) 
idAAUPgen7

$$$$

     RDKit          2D

 23 25  0  0  0  0  0  0  0  0999 V2000
    3.0000    0.0000    0.0000 C   0  0  0  0  0  0  0  0  0  0  0  0
    1.5000    0.0000    0.0000 C   0  0  0  0  0  0  0  0  0  0  0  0
    0.7500   -1.2990    0.0000 C   0  0  0  0  0  0  0  0  0  0  0  0
   -0.7500   -1.2990    0.0000 C   0  0  0  0  0  0  0  0  0  0  0  0
   -1.5000    0.0000    0.0000 C   0  0  0  0  0  0  0  0  0  0  0  0
   -3.0000    0.0000    0.0000 N   0  0  0  0  0  0  0  0  0  0  0  0
   -3.7500    1.2990    0.0000 N   0  0  0  0  0  0  0  0  0  0  0  0
   -5.2500    1.2990    0.0000 N   0  0  0  0  0  0  0  0  0  0  0  0
   -6.0000    0.0000    0.0000 N   0  0  0  0  0  0  0  0  0  0  0  0
   -5.2500   -1.2990    0.0000 N   0  0  0  0  0  0  0  0  0  0  0  0
   -3.7500   -1.2990    0.0000 N   0  0  0  0  0  0  0  0  0  0  0  0
   -3.0000   -2.5981    0.0000 C   0  0  0  0  0  0  0  0  0  0  0  0
   -3.7500   -3.8971    0.0000 C   0  0  0  0  0  0  0  0  0  0  0  0
   -3.0000   -5.1962    0.0000 C   0  0  0  0  0  0  0  0  0  0  0  0
   -1.5000   -5.1962    0.0000 C   0  0  0  0  0  0  0  0  0  0  0  0
   -0.7500   -6.4952    0.0000 C   0  0  0  0  0  0  0  0  0  0  0  0
    0.7500   -6.4952    0.0000 O   0  0  0  0  0  0  0  0  0  0  0  0
   -1.5000   -7.7942    0.0000 N   0  0  0  0  0  0  0  0  0  0  0  0
   -0.7500   -9.0933    0.0000 O   0  0  0  0  0  0  0  0  0  0  0  0
   -0.7500   -3.8971    0.0000 C   0  0  0  0  0  0  0  0  0  0  0  0
   -1.5000   -2.5981    0.0000 C   0  0  0  0  0  0  0  0  0  0  0  0
   -0.7500    1.2990    0.0000 C   0  0  0  0  0  0  0  0  0  0  0  0
    0.7500    1.2990    0.0000 C   0  0  0  0  0  0  0  0  0  0  0  0
  1  2  1  0
  2  3  2  0
  3  4  1  0
  4  5  2  0
  5  6  1  0
  6  7  1  0
  7  8  2  0
  8  9  1  0
  9 10  2  0
 10 11  1  0
 11 12  1  0
 12 13  2  0
 13 14  1  0
 14 15  2  0
 15 16  1  0
 16 17  2  0
 16 18  1  0
 18 19  1  0
 15 20  1  0
 20 21  1  0
  5 22  1  0
 22 23  2  0
 23  2  1  0
 11  6  1  0
 21 12  1  0
M  END
>  <Title>  (537) 
idAAUQgen7

$$$$

     RDKit          2D

 12 12  0  0  0  0  0  0  0  0999 V2000
    4.4429   -1.2990    0.0000 C   0  0  0  0  0  0  0  0  0  0  0  0
    3.6929    0.0000    0.0000 C   0  0  0  0  0  0  0  0  0  0  0  0
    4.4429    1.2990    0.0000 O   0  0  0  0  0  0  0  0  0  0  0  0
    2.1929    0.0000    0.0000 N   0  0  0  0  0  0  0  0  0  0  0  0
    1.6798    1.4095    0.0000 C   0  0  0  0  0  0  0  0  0  0  0  0
    0.3808    2.1595    0.0000 C   0  0  0  0  0  0  0  0  0  0  0  0
   -1.0964    1.8991    0.0000 C   0  0  0  0  0  0  0  0  0  0  0  0
   -2.0606    0.7500    0.0000 C   0  0  0  0  0  0  0  0  0  0  0  0
   -2.0606   -0.7500    0.0000 C   0  0  0  0  0  0  0  0  0  0  0  0
   -1.0964   -1.8991    0.0000 C   0  0  0  0  0  0  0  0  0  0  0  0
    0.3808   -2.1595    0.0000 C   0  0  0  0  0  0  0  0  0  0  0  0
    1.6798   -1.4095    0.0000 C   0  0  0  0  0  0  0  0  0  0  0  0
  1  2  1  0
  2  3  2  0
  2  4  1  0
  4  5  1  0
  5  6  1  0
  6  7  1  0
  7  8  1  0
  8  9  1  0
  9 10  1  0
 10 11  1  0
 11 12  1  0
 12  4  1  0
M  END
>  <Title>  (538) 
idAAURgen7

$$$$

     RDKit          2D

 33 37  0  0  0  0  0  0  0  0999 V2000
    3.0000    0.0000    0.0000 C   0  0  0  0  0  0  0  0  0  0  0  0
    1.5000    0.0000    0.0000 C   0  0  0  0  0  0  0  0  0  0  0  0
    0.7500    1.2990    0.0000 C   0  0  0  0  0  0  0  0  0  0  0  0
   -0.7500    1.2990    0.0000 C   0  0  0  0  0  0  0  0  0  0  0  0
   -1.5000    0.0000    0.0000 C   0  0  0  0  0  0  0  0  0  0  0  0
   -3.0000    0.0000    0.0000 C   0  0  0  0  0  0  0  0  0  0  0  0
   -3.8817   -1.2135    0.0000 N   0  0  0  0  0  0  0  0  0  0  0  0
   -5.3083   -0.7500    0.0000 N   0  0  0  0  0  0  0  0  0  0  0  0
   -5.3083    0.7500    0.0000 N   0  0  0  0  0  0  0  0  0  0  0  0
   -3.8817    1.2135    0.0000 N   0  0  0  0  0  0  0  0  0  0  0  0
   -3.4182    2.6401    0.0000 C   0  0  0  0  0  0  0  0  0  0  0  0
   -1.9509    2.9520    0.0000 C   0  0  0  0  0  0  0  0  0  0  0  0
   -1.4874    4.3786    0.0000 C   0  0  0  0  0  0  0  0  0  0  0  0
   -2.4911    5.4933    0.0000 C   0  0  0  0  0  0  0  0  0  0  0  0
   -2.0276    6.9199    0.0000 C   0  0  0  0  0  0  0  0  0  0  0  0
   -3.0313    8.0346    0.0000 O   0  0  0  0  0  0  0  0  0  0  0  0
   -0.5604    7.2317    0.0000 N   0  0  0  0  0  0  0  0  0  0  0  0
   -0.0968    8.6583    0.0000 C   0  0  0  0  0  0  0  0  0  0  0  0
   -0.9785    9.8718    0.0000 N   0  0  0  0  0  0  0  0  0  0  0  0
   -0.0968   11.0854    0.0000 N   0  0  0  0  0  0  0  0  0  0  0  0
    1.3298   10.6218    0.0000 N   0  0  0  0  0  0  0  0  0  0  0  0
    1.3298    9.1218    0.0000 N   0  0  0  0  0  0  0  0  0  0  0  0
    2.5433    8.2402    0.0000 C   0  0  0  0  0  0  0  0  0  0  0  0
    2.3865    6.7484    0.0000 C   0  0  0  0  0  0  0  0  0  0  0  0
    3.6000    5.8667    0.0000 C   0  0  0  0  0  0  0  0  0  0  0  0
    4.9703    6.4768    0.0000 C   0  0  0  0  0  0  0  0  0  0  0  0
    5.1271    7.9686    0.0000 C   0  0  0  0  0  0  0  0  0  0  0  0
    3.9136    8.8503    0.0000 C   0  0  0  0  0  0  0  0  0  0  0  0
   -3.9583    5.1814    0.0000 C   0  0  0  0  0  0  0  0  0  0  0  0
   -4.4218    3.7548    0.0000 C   0  0  0  0  0  0  0  0  0  0  0  0
   -0.7500   -1.2990    0.0000 C   0  0  0  0  0  0  0  0  0  0  0  0
   -1.5000   -2.5981    0.0000 O   0  0  0  0  0  0  0  0  0  0  0  0
    0.7500   -1.2990    0.0000 O   0  0  0  0  0  0  0  0  0  0  0  0
  1  2  1  0
  2  3  2  0
  3  4  1  0
  4  5  2  0
  5  6  1  0
  6  7  2  0
  7  8  1  0
  8  9  2  0
  9 10  1  0
 10 11  1  0
 11 12  2  0
 12 13  1  0
 13 14  2  0
 14 15  1  0
 15 16  2  0
 15 17  1  0
 17 18  1  0
 18 19  2  0
 19 20  1  0
 20 21  2  0
 21 22  1  0
 22 23  1  0
 23 24  2  0
 24 25  1  0
 25 26  2  0
 26 27  1  0
 27 28  2  0
 14 29  1  0
 29 30  2  0
  5 31  1  0
 31 32  2  0
 31 33  1  0
 33  2  1  0
 10  6  1  0
 30 11  1  0
 22 18  1  0
 28 23  1  0
M  END
>  <Title>  (539) 
idAAUSgen7

$$$$

     RDKit          2D

 26 28  0  0  0  0  0  0  0  0999 V2000
    5.2500   -1.2990    0.0000 C   0  0  0  0  0  0  0  0  0  0  0  0
    3.7500   -1.2990    0.0000 N   0  0  0  0  0  0  0  0  0  0  0  0
    3.0000   -2.5981    0.0000 C   0  0  0  0  0  0  0  0  0  0  0  0
    3.0000    0.0000    0.0000 C   0  0  0  0  0  0  0  0  0  0  0  0
    3.7500    1.2990    0.0000 O   0  0  0  0  0  0  0  0  0  0  0  0
    1.5000    0.0000    0.0000 C   0  0  0  0  0  0  0  0  0  0  0  0
    0.7500   -1.2990    0.0000 C   0  0  0  0  0  0  0  0  0  0  0  0
   -0.7500   -1.2990    0.0000 C   0  0  0  0  0  0  0  0  0  0  0  0
   -1.5000    0.0000    0.0000 C   0  0  0  0  0  0  0  0  0  0  0  0
   -3.0000    0.0000    0.0000 C   0  0  0  0  0  0  0  0  0  0  0  0
   -3.7500   -1.2990    0.0000 O   0  0  0  0  0  0  0  0  0  0  0  0
   -3.7500    1.2990    0.0000 N   0  0  0  0  0  0  0  0  0  0  0  0
   -5.2500    1.2990    0.0000 C   0  0  0  0  0  0  0  0  0  0  0  0
   -6.1317    0.0855    0.0000 N   0  0  0  0  0  0  0  0  0  0  0  0
   -7.5583    0.5490    0.0000 N   0  0  0  0  0  0  0  0  0  0  0  0
   -7.5583    2.0490    0.0000 N   0  0  0  0  0  0  0  0  0  0  0  0
   -6.1317    2.5126    0.0000 N   0  0  0  0  0  0  0  0  0  0  0  0
   -5.6682    3.9391    0.0000 C   0  0  0  0  0  0  0  0  0  0  0  0
   -4.2009    4.2510    0.0000 C   0  0  0  0  0  0  0  0  0  0  0  0
   -3.7374    5.6776    0.0000 C   0  0  0  0  0  0  0  0  0  0  0  0
   -4.7411    6.7923    0.0000 C   0  0  0  0  0  0  0  0  0  0  0  0
   -6.2083    6.4805    0.0000 C   0  0  0  0  0  0  0  0  0  0  0  0
   -6.6718    5.0539    0.0000 C   0  0  0  0  0  0  0  0  0  0  0  0
   -0.7500    1.2990    0.0000 C   0  0  0  0  0  0  0  0  0  0  0  0
   -1.5000    2.5981    0.0000 O   0  0  0  0  0  0  0  0  0  0  0  0
    0.7500    1.2990    0.0000 N   0  0  0  0  0  0  0  0  0  0  0  0
  1  2  1  0
  2  3  1  0
  2  4  1  0
  4  5  2  0
  4  6  1  0
  6  7  1  0
  7  8  1  0
  8  9  2  0
  9 10  1  0
 10 11  2  0
 10 12  1  0
 12 13  1  0
 13 14  2  0
 14 15  1  0
 15 16  2  0
 16 17  1  0
 17 18  1  0
 18 19  2  0
 19 20  1  0
 20 21  2  0
 21 22  1  0
 22 23  2  0
  9 24  1  0
 24 25  2  0
 24 26  1  0
 26  6  1  0
 17 13  1  0
 23 18  1  0
M  END
>  <Title>  (540) 
idAAUTgen7

$$$$

     RDKit          2D

 26 28  0  0  0  0  0  0  0  0999 V2000
   -7.7883    5.8499    0.0000 C   0  0  0  0  0  0  0  0  0  0  0  0
   -6.4152    5.2461    0.0000 C   0  0  0  0  0  0  0  0  0  0  0  0
   -5.2058    6.1333    0.0000 C   0  0  0  0  0  0  0  0  0  0  0  0
   -6.2516    3.7550    0.0000 C   0  0  0  0  0  0  0  0  0  0  0  0
   -4.8784    3.1512    0.0000 C   0  0  0  0  0  0  0  0  0  0  0  0
   -3.9636    4.3399    0.0000 C   0  0  0  0  0  0  0  0  0  0  0  0
   -2.6011    4.9673    0.0000 C   0  0  0  0  0  0  0  0  0  0  0  0
   -1.1031    4.8897    0.0000 C   0  0  0  0  0  0  0  0  0  0  0  0
    0.1872    4.1248    0.0000 C   0  0  0  0  0  0  0  0  0  0  0  0
    0.9743    2.8479    0.0000 C   0  0  0  0  0  0  0  0  0  0  0  0
    1.0777    1.3515    0.0000 C   0  0  0  0  0  0  0  0  0  0  0  0
    1.7286    0.0000    0.0000 C   0  0  0  0  0  0  0  0  0  0  0  0
    1.0777   -1.3515    0.0000 C   0  0  0  0  0  0  0  0  0  0  0  0
   -0.3846   -1.6852    0.0000 C   0  0  0  0  0  0  0  0  0  0  0  0
   -1.5574   -0.7500    0.0000 C   0  0  0  0  0  0  0  0  0  0  0  0
   -3.6077   -0.8061    0.0000 C   0  0  0  0  0  0  0  0  0  0  0  0
   -4.6775    0.2453    0.0000 C   0  0  0  0  0  0  0  0  0  0  0  0
   -5.1361    1.6735    0.0000 C   0  0  0  0  0  0  0  0  0  0  0  0
   -6.6325    1.5700    0.0000 C   0  0  0  0  0  0  0  0  0  0  0  0
   -1.5574    0.7500    0.0000 C   0  0  0  0  0  0  0  0  0  0  0  0
   -2.9088    1.4008    0.0000 N   0  0  0  0  0  0  0  0  0  0  0  0
   -3.1767    2.8767    0.0000 N   0  0  0  0  0  0  0  0  0  0  0  0
   -4.6631    3.0781    0.0000 N   0  0  0  0  0  0  0  0  0  0  0  0
   -5.3139    1.7266    0.0000 N   0  0  0  0  0  0  0  0  0  0  0  0
   -4.2297    0.6900    0.0000 N   0  0  0  0  0  0  0  0  0  0  0  0
   -0.3846    1.6852    0.0000 C   0  0  0  0  0  0  0  0  0  0  0  0
  1  2  1  0
  2  3  1  0
  2  4  2  3
  4  5  1  0
  5  6  2  0
  6  7  1  0
  7  8  2  0
  8  9  1  0
  9 10  2  0
 10 11  1  0
 11 12  2  0
 12 13  1  0
 13 14  2  0
 14 15  1  0
 15 16  2  0
 16 17  1  0
 17 18  2  0
 18 19  1  0
 15 20  1  0
 20 21  1  0
 21 22  1  0
 22 23  2  0
 23 24  1  0
 24 25  2  0
 20 26  2  0
 18  5  1  0
 25 21  1  0
 26 11  1  0
M  END
>  <Title>  (541) 
idAAUUgen7

$$$$

     RDKit          2D

 26 28  0  0  0  0  0  0  0  0999 V2000
    3.0000    0.0000    0.0000 C   0  0  0  0  0  0  0  0  0  0  0  0
    1.5000    0.0000    0.0000 C   0  0  0  0  0  0  0  0  0  0  0  0
    0.7500   -1.2990    0.0000 C   0  0  0  0  0  0  0  0  0  0  0  0
   -0.7500   -1.2990    0.0000 C   0  0  0  0  0  0  0  0  0  0  0  0
   -1.5000    0.0000    0.0000 C   0  0  0  0  0  0  0  0  0  0  0  0
   -3.0000    0.0000    0.0000 C   0  0  0  0  0  0  0  0  0  0  0  0
   -3.7500   -1.2990    0.0000 O   0  0  0  0  0  0  0  0  0  0  0  0
   -3.7500    1.2990    0.0000 N   0  0  0  0  0  0  0  0  0  0  0  0
   -5.2500    1.2990    0.0000 C   0  0  0  0  0  0  0  0  0  0  0  0
   -6.1317    0.0855    0.0000 N   0  0  0  0  0  0  0  0  0  0  0  0
   -7.5583    0.5490    0.0000 N   0  0  0  0  0  0  0  0  0  0  0  0
   -7.5583    2.0490    0.0000 N   0  0  0  0  0  0  0  0  0  0  0  0
   -6.1317    2.5126    0.0000 N   0  0  0  0  0  0  0  0  0  0  0  0
   -5.6682    3.9391    0.0000 C   0  0  0  0  0  0  0  0  0  0  0  0
   -4.2009    4.2510    0.0000 C   0  0  0  0  0  0  0  0  0  0  0  0
   -3.7374    5.6776    0.0000 C   0  0  0  0  0  0  0  0  0  0  0  0
   -4.7411    6.7923    0.0000 C   0  0  0  0  0  0  0  0  0  0  0  0
   -4.2776    8.2189    0.0000 C   0  0  0  0  0  0  0  0  0  0  0  0
   -5.2813    9.3336    0.0000 O   0  0  0  0  0  0  0  0  0  0  0  0
   -2.8104    8.5308    0.0000 N   0  0  0  0  0  0  0  0  0  0  0  0
   -2.3468    9.9574    0.0000 O   0  0  0  0  0  0  0  0  0  0  0  0
   -6.2083    6.4805    0.0000 C   0  0  0  0  0  0  0  0  0  0  0  0
   -6.6718    5.0539    0.0000 C   0  0  0  0  0  0  0  0  0  0  0  0
   -0.7500    1.2990    0.0000 C   0  0  0  0  0  0  0  0  0  0  0  0
   -1.5000    2.5981    0.0000 O   0  0  0  0  0  0  0  0  0  0  0  0
    0.7500    1.2990    0.0000 N   0  0  0  0  0  0  0  0  0  0  0  0
  1  2  1  0
  2  3  2  0
  3  4  1  0
  4  5  2  0
  5  6  1  0
  6  7  2  0
  6  8  1  0
  8  9  1  0
  9 10  2  0
 10 11  1  0
 11 12  2  0
 12 13  1  0
 13 14  1  0
 14 15  2  0
 15 16  1  0
 16 17  2  0
 17 18  1  0
 18 19  2  0
 18 20  1  0
 20 21  1  0
 17 22  1  0
 22 23  1  0
  5 24  1  0
 24 25  2  0
 24 26  1  0
 26  2  1  0
 13  9  1  0
 23 14  1  0
M  END
>  <Title>  (542) 
idAAUVgen7

$$$$

     RDKit          2D

 13 13  0  0  0  0  0  0  0  0999 V2000
    4.6771   -1.2990    0.0000 C   0  0  0  0  0  0  0  0  0  0  0  0
    3.9271    0.0000    0.0000 C   0  0  0  0  0  0  0  0  0  0  0  0
    4.6771    1.2990    0.0000 O   0  0  0  0  0  0  0  0  0  0  0  0
    2.4271    0.0000    0.0000 N   0  0  0  0  0  0  0  0  0  0  0  0
    1.9635   -1.4266    0.0000 C   0  0  0  0  0  0  0  0  0  0  0  0
    0.7500   -2.3083    0.0000 C   0  0  0  0  0  0  0  0  0  0  0  0
   -0.7500   -2.3083    0.0000 C   0  0  0  0  0  0  0  0  0  0  0  0
   -1.9635   -1.4266    0.0000 C   0  0  0  0  0  0  0  0  0  0  0  0
   -2.4271    0.0000    0.0000 C   0  0  0  0  0  0  0  0  0  0  0  0
   -1.9635    1.4266    0.0000 C   0  0  0  0  0  0  0  0  0  0  0  0
   -0.7500    2.3083    0.0000 C   0  0  0  0  0  0  0  0  0  0  0  0
    0.7500    2.3083    0.0000 C   0  0  0  0  0  0  0  0  0  0  0  0
    1.9635    1.4266    0.0000 C   0  0  0  0  0  0  0  0  0  0  0  0
  1  2  1  0
  2  3  2  0
  2  4  1  0
  4  5  1  0
  5  6  1  0
  6  7  1  0
  7  8  1  0
  8  9  1  0
  9 10  1  0
 10 11  1  0
 11 12  1  0
 12 13  1  0
 13  4  1  0
M  END
>  <Title>  (543) 
idAAUWgen7

$$$$

     RDKit          2D

 17 17  0  0  0  0  0  0  0  0999 V2000
    5.3444    0.0000    0.0000 O   0  0  0  0  0  0  0  0  0  0  0  0
    3.8444    0.0000    0.0000 C   0  0  0  0  0  0  0  0  0  0  0  0
    3.5517   -1.4712    0.0000 C   0  0  0  0  0  0  0  0  0  0  0  0
    2.7184   -2.7184    0.0000 C   0  0  0  0  0  0  0  0  0  0  0  0
    1.4712   -3.5517    0.0000 C   0  0  0  0  0  0  0  0  0  0  0  0
   -0.0000   -3.8444    0.0000 C   0  0  0  0  0  0  0  0  0  0  0  0
   -1.4712   -3.5517    0.0000 C   0  0  0  0  0  0  0  0  0  0  0  0
   -2.7184   -2.7184    0.0000 C   0  0  0  0  0  0  0  0  0  0  0  0
   -3.5517   -1.4712    0.0000 C   0  0  0  0  0  0  0  0  0  0  0  0
   -3.8444    0.0000    0.0000 C   0  0  0  0  0  0  0  0  0  0  0  0
   -3.5517    1.4712    0.0000 C   0  0  0  0  0  0  0  0  0  0  0  0
   -2.7184    2.7184    0.0000 C   0  0  0  0  0  0  0  0  0  0  0  0
   -1.4712    3.5517    0.0000 C   0  0  0  0  0  0  0  0  0  0  0  0
    0.0000    3.8444    0.0000 C   0  0  0  0  0  0  0  0  0  0  0  0
    1.4712    3.5517    0.0000 C   0  0  0  0  0  0  0  0  0  0  0  0
    2.7184    2.7184    0.0000 C   0  0  0  0  0  0  0  0  0  0  0  0
    3.5517    1.4712    0.0000 C   0  0  0  0  0  0  0  0  0  0  0  0
  1  2  1  0
  2  3  2  0
  3  4  1  0
  4  5  2  0
  5  6  1  0
  6  7  2  0
  7  8  1  0
  8  9  2  0
  9 10  1  0
 10 11  2  0
 11 12  1  0
 12 13  2  0
 13 14  1  0
 14 15  2  0
 15 16  1  0
 16 17  2  0
 17  2  1  0
M  END
>  <Title>  (544) 
idAAUXgen7

$$$$

     RDKit          2D

 33 36  0  0  0  0  0  0  0  0999 V2000
    3.7500   -1.2990    0.0000 C   0  0  0  0  0  0  0  0  0  0  0  0
    3.0000    0.0000    0.0000 O   0  0  0  0  0  0  0  0  0  0  0  0
    1.5000    0.0000    0.0000 C   0  0  0  0  0  0  0  0  0  0  0  0
    0.7500   -1.2990    0.0000 C   0  0  0  0  0  0  0  0  0  0  0  0
   -0.7500   -1.2990    0.0000 C   0  0  0  0  0  0  0  0  0  0  0  0
   -1.5000    0.0000    0.0000 C   0  0  0  0  0  0  0  0  0  0  0  0
   -3.0000    0.0000    0.0000 N   0  0  0  0  0  0  0  0  0  0  0  0
   -3.7500    1.2990    0.0000 C   0  0  0  0  0  0  0  0  0  0  0  0
   -3.0000    2.5981    0.0000 O   0  0  0  0  0  0  0  0  0  0  0  0
   -5.2500    1.2990    0.0000 C   0  0  0  0  0  0  0  0  0  0  0  0
   -6.1317    0.0855    0.0000 C   0  0  0  0  0  0  0  0  0  0  0  0
   -7.5583    0.5490    0.0000 C   0  0  0  0  0  0  0  0  0  0  0  0
   -7.5583    2.0490    0.0000 C   0  0  0  0  0  0  0  0  0  0  0  0
   -8.7718    2.9307    0.0000 C   0  0  0  0  0  0  0  0  0  0  0  0
  -10.1984    2.4672    0.0000 N   0  0  0  0  0  0  0  0  0  0  0  0
  -11.0801    3.6807    0.0000 N   0  0  0  0  0  0  0  0  0  0  0  0
  -10.1984    4.8942    0.0000 N   0  0  0  0  0  0  0  0  0  0  0  0
   -8.7718    4.4307    0.0000 N   0  0  0  0  0  0  0  0  0  0  0  0
   -7.5583    5.3124    0.0000 C   0  0  0  0  0  0  0  0  0  0  0  0
   -6.1879    4.7023    0.0000 C   0  0  0  0  0  0  0  0  0  0  0  0
   -4.9744    5.5840    0.0000 C   0  0  0  0  0  0  0  0  0  0  0  0
   -5.1312    7.0757    0.0000 C   0  0  0  0  0  0  0  0  0  0  0  0
   -3.9177    7.9574    0.0000 C   0  0  0  0  0  0  0  0  0  0  0  0
   -4.0745    9.4492    0.0000 O   0  0  0  0  0  0  0  0  0  0  0  0
   -2.5474    7.3473    0.0000 N   0  0  0  0  0  0  0  0  0  0  0  0
   -1.3338    8.2290    0.0000 O   0  0  0  0  0  0  0  0  0  0  0  0
   -6.5015    7.6859    0.0000 C   0  0  0  0  0  0  0  0  0  0  0  0
   -7.7151    6.8042    0.0000 C   0  0  0  0  0  0  0  0  0  0  0  0
   -6.1317    2.5126    0.0000 C   0  0  0  0  0  0  0  0  0  0  0  0
   -5.6682    3.9391    0.0000 O   0  0  0  0  0  0  0  0  0  0  0  0
   -0.7500    1.2990    0.0000 C   0  0  0  0  0  0  0  0  0  0  0  0
   -1.5000    2.5981    0.0000 O   0  0  0  0  0  0  0  0  0  0  0  0
    0.7500    1.2990    0.0000 N   0  0  0  0  0  0  0  0  0  0  0  0
  1  2  1  0
  2  3  1  0
  3  4  2  0
  4  5  1  0
  5  6  2  0
  6  7  1  0
  7  8  1  0
  8  9  2  0
  8 10  1  0
 10 11  2  0
 11 12  1  0
 12 13  2  0
 13 14  1  0
 14 15  2  0
 15 16  1  0
 16 17  2  0
 17 18  1  0
 18 19  1  0
 19 20  2  0
 20 21  1  0
 21 22  2  0
 22 23  1  0
 23 24  2  0
 23 25  1  0
 25 26  1  0
 22 27  1  0
 27 28  1  0
 13 29  1  0
 29 30  2  0
  6 31  1  0
 31 32  2  0
 31 33  1  0
 33  3  1  0
 29 10  1  0
 18 14  1  0
 28 19  1  0
M  END
>  <Title>  (545) 
idAAUYgen7

$$$$

     RDKit          2D

 34 38  0  0  0  0  0  0  0  0999 V2000
    3.0000    0.0000    0.0000 C   0  0  0  0  0  0  0  0  0  0  0  0
    1.5000    0.0000    0.0000 C   0  0  0  0  0  0  0  0  0  0  0  0
    0.7500    1.2990    0.0000 C   0  0  0  0  0  0  0  0  0  0  0  0
   -0.7500    1.2990    0.0000 C   0  0  0  0  0  0  0  0  0  0  0  0
   -1.5000    0.0000    0.0000 C   0  0  0  0  0  0  0  0  0  0  0  0
   -3.0000    0.0000    0.0000 C   0  0  0  0  0  0  0  0  0  0  0  0
   -3.8817   -1.2135    0.0000 N   0  0  0  0  0  0  0  0  0  0  0  0
   -5.3083   -0.7500    0.0000 N   0  0  0  0  0  0  0  0  0  0  0  0
   -5.3083    0.7500    0.0000 N   0  0  0  0  0  0  0  0  0  0  0  0
   -3.8817    1.2135    0.0000 N   0  0  0  0  0  0  0  0  0  0  0  0
   -3.4182    2.6401    0.0000 C   0  0  0  0  0  0  0  0  0  0  0  0
   -1.9509    2.9520    0.0000 C   0  0  0  0  0  0  0  0  0  0  0  0
   -1.4874    4.3786    0.0000 C   0  0  0  0  0  0  0  0  0  0  0  0
   -2.4911    5.4933    0.0000 C   0  0  0  0  0  0  0  0  0  0  0  0
   -2.0276    6.9199    0.0000 C   0  0  0  0  0  0  0  0  0  0  0  0
   -3.0313    8.0346    0.0000 O   0  0  0  0  0  0  0  0  0  0  0  0
   -0.5604    7.2317    0.0000 N   0  0  0  0  0  0  0  0  0  0  0  0
   -0.0968    8.6583    0.0000 C   0  0  0  0  0  0  0  0  0  0  0  0
    1.3704    8.9702    0.0000 C   0  0  0  0  0  0  0  0  0  0  0  0
    1.8339   10.3968    0.0000 C   0  0  0  0  0  0  0  0  0  0  0  0
    0.8302   11.5115    0.0000 C   0  0  0  0  0  0  0  0  0  0  0  0
    1.2937   12.9381    0.0000 C   0  0  0  0  0  0  0  0  0  0  0  0
    2.7610   13.2499    0.0000 C   0  0  0  0  0  0  0  0  0  0  0  0
    3.2245   14.6765    0.0000 C   0  0  0  0  0  0  0  0  0  0  0  0
    2.2208   15.7912    0.0000 C   0  0  0  0  0  0  0  0  0  0  0  0
    0.7536   15.4794    0.0000 C   0  0  0  0  0  0  0  0  0  0  0  0
    0.2901   14.0528    0.0000 C   0  0  0  0  0  0  0  0  0  0  0  0
   -0.6370   11.1996    0.0000 C   0  0  0  0  0  0  0  0  0  0  0  0
   -1.1005    9.7730    0.0000 C   0  0  0  0  0  0  0  0  0  0  0  0
   -3.9583    5.1814    0.0000 C   0  0  0  0  0  0  0  0  0  0  0  0
   -4.4218    3.7548    0.0000 C   0  0  0  0  0  0  0  0  0  0  0  0
   -0.7500   -1.2990    0.0000 C   0  0  0  0  0  0  0  0  0  0  0  0
   -1.5000   -2.5981    0.0000 O   0  0  0  0  0  0  0  0  0  0  0  0
    0.7500   -1.2990    0.0000 N   0  0  0  0  0  0  0  0  0  0  0  0
  1  2  1  0
  2  3  2  0
  3  4  1  0
  4  5  2  0
  5  6  1  0
  6  7  2  0
  7  8  1  0
  8  9  2  0
  9 10  1  0
 10 11  1  0
 11 12  2  0
 12 13  1  0
 13 14  2  0
 14 15  1  0
 15 16  2  0
 15 17  1  0
 17 18  1  0
 18 19  2  0
 19 20  1  0
 20 21  2  0
 21 22  1  0
 22 23  2  0
 23 24  1  0
 24 25  2  0
 25 26  1  0
 26 27  2  0
 21 28  1  0
 28 29  2  0
 14 30  1  0
 30 31  2  0
  5 32  1  0
 32 33  2  0
 32 34  1  0
 34  2  1  0
 10  6  1  0
 31 11  1  0
 29 18  1  0
 27 22  1  0
M  END
>  <Title>  (546) 
idAAUZgen7

$$$$

     RDKit          2D

 24 27  0  0  0  0  0  0  0  0999 V2000
   -1.5000    2.5981    0.0000 O   0  0  0  0  0  0  0  0  0  0  0  0
   -0.7500    1.2990    0.0000 C   0  0  0  0  0  0  0  0  0  0  0  0
   -1.5000   -0.0000    0.0000 N   0  0  0  0  0  0  0  0  0  0  0  0
   -0.7500   -1.2990    0.0000 C   0  0  0  0  0  0  0  0  0  0  0  0
    0.7500   -1.2990    0.0000 C   0  0  0  0  0  0  0  0  0  0  0  0
    1.5000    0.0000    0.0000 C   0  0  0  0  0  0  0  0  0  0  0  0
    0.7500    1.2990    0.0000 C   0  0  0  0  0  0  0  0  0  0  0  0
    1.5000    2.5981    0.0000 C   0  0  0  0  0  0  0  0  0  0  0  0
    0.8899    3.9684    0.0000 N   0  0  0  0  0  0  0  0  0  0  0  0
    2.0046    4.9721    0.0000 N   0  0  0  0  0  0  0  0  0  0  0  0
    3.3037    4.2221    0.0000 N   0  0  0  0  0  0  0  0  0  0  0  0
    2.9918    2.7549    0.0000 N   0  0  0  0  0  0  0  0  0  0  0  0
    3.9955    1.6402    0.0000 C   0  0  0  0  0  0  0  0  0  0  0  0
    3.5320    0.2136    0.0000 C   0  0  0  0  0  0  0  0  0  0  0  0
    4.5356   -0.9012    0.0000 C   0  0  0  0  0  0  0  0  0  0  0  0
    6.0029   -0.5893    0.0000 C   0  0  0  0  0  0  0  0  0  0  0  0
    7.0066   -1.7040    0.0000 C   0  0  0  0  0  0  0  0  0  0  0  0
    6.5430   -3.1306    0.0000 C   0  0  0  0  0  0  0  0  0  0  0  0
    7.5467   -4.2453    0.0000 C   0  0  0  0  0  0  0  0  0  0  0  0
    9.0140   -3.9334    0.0000 C   0  0  0  0  0  0  0  0  0  0  0  0
    9.4775   -2.5068    0.0000 C   0  0  0  0  0  0  0  0  0  0  0  0
    8.4738   -1.3921    0.0000 C   0  0  0  0  0  0  0  0  0  0  0  0
    6.4664    0.8373    0.0000 C   0  0  0  0  0  0  0  0  0  0  0  0
    5.4627    1.9520    0.0000 C   0  0  0  0  0  0  0  0  0  0  0  0
  1  2  2  0
  2  3  1  0
  3  4  1  0
  4  5  2  0
  5  6  1  0
  6  7  2  0
  7  8  1  0
  8  9  2  0
  9 10  1  0
 10 11  2  0
 11 12  1  0
 12 13  1  0
 13 14  2  0
 14 15  1  0
 15 16  2  0
 16 17  1  0
 17 18  2  0
 18 19  1  0
 19 20  2  0
 20 21  1  0
 21 22  2  0
 16 23  1  0
 23 24  2  0
  7  2  1  0
 12  8  1  0
 24 13  1  0
 22 17  1  0
M  END
>  <Title>  (547) 
idAAVAgen7

$$$$

     RDKit          2D

 46 52  0  0  0  0  0  0  0  0999 V2000
    7.2276   -7.7552    0.0000 C   0  0  0  0  0  0  0  0  0  0  0  0
    6.4776   -6.4562    0.0000 C   0  0  0  0  0  0  0  0  0  0  0  0
    7.0877   -5.0859    0.0000 C   0  0  0  0  0  0  0  0  0  0  0  0
    5.9730   -4.0822    0.0000 C   0  0  0  0  0  0  0  0  0  0  0  0
    4.6740   -4.8322    0.0000 C   0  0  0  0  0  0  0  0  0  0  0  0
    3.3037   -4.2221    0.0000 C   0  0  0  0  0  0  0  0  0  0  0  0
    2.0046   -4.9721    0.0000 C   0  0  0  0  0  0  0  0  0  0  0  0
    0.8899   -3.9684    0.0000 C   0  0  0  0  0  0  0  0  0  0  0  0
    1.5000   -2.5981    0.0000 C   0  0  0  0  0  0  0  0  0  0  0  0
    0.7500   -1.2990    0.0000 C   0  0  0  0  0  0  0  0  0  0  0  0
    1.5000    0.0000    0.0000 C   0  0  0  0  0  0  0  0  0  0  0  0
    0.7500    1.2990    0.0000 C   0  0  0  0  0  0  0  0  0  0  0  0
    1.5000    2.5981    0.0000 C   0  0  0  0  0  0  0  0  0  0  0  0
    0.7500    3.8971    0.0000 O   0  0  0  0  0  0  0  0  0  0  0  0
    3.0000    2.5981    0.0000 N   0  0  0  0  0  0  0  0  0  0  0  0
    3.7500    3.8971    0.0000 C   0  0  0  0  0  0  0  0  0  0  0  0
    3.1399    5.2674    0.0000 N   0  0  0  0  0  0  0  0  0  0  0  0
    4.2546    6.2711    0.0000 N   0  0  0  0  0  0  0  0  0  0  0  0
    5.5537    5.5211    0.0000 N   0  0  0  0  0  0  0  0  0  0  0  0
    5.2418    4.0539    0.0000 N   0  0  0  0  0  0  0  0  0  0  0  0
    6.2455    2.9392    0.0000 C   0  0  0  0  0  0  0  0  0  0  0  0
    5.7820    1.5126    0.0000 C   0  0  0  0  0  0  0  0  0  0  0  0
    6.7856    0.3979    0.0000 C   0  0  0  0  0  0  0  0  0  0  0  0
    8.2529    0.7098    0.0000 C   0  0  0  0  0  0  0  0  0  0  0  0
    8.7164    2.1363    0.0000 C   0  0  0  0  0  0  0  0  0  0  0  0
    7.7127    3.2511    0.0000 C   0  0  0  0  0  0  0  0  0  0  0  0
   -0.7500    1.2990    0.0000 C   0  0  0  0  0  0  0  0  0  0  0  0
   -1.5000    0.0000    0.0000 C   0  0  0  0  0  0  0  0  0  0  0  0
   -0.7500   -1.2990    0.0000 C   0  0  0  0  0  0  0  0  0  0  0  0
   -1.5000   -2.5981    0.0000 N   0  0  0  0  0  0  0  0  0  0  0  0
   -0.8899   -3.9684    0.0000 N   0  0  0  0  0  0  0  0  0  0  0  0
   -2.0046   -4.9721    0.0000 N   0  0  0  0  0  0  0  0  0  0  0  0
   -3.3037   -4.2221    0.0000 N   0  0  0  0  0  0  0  0  0  0  0  0
   -2.9918   -2.7549    0.0000 C   0  0  0  0  0  0  0  0  0  0  0  0
   -3.9955   -1.6402    0.0000 C   0  0  0  0  0  0  0  0  0  0  0  0
   -3.5320   -0.2136    0.0000 C   0  0  0  0  0  0  0  0  0  0  0  0
   -4.5356    0.9012    0.0000 C   0  0  0  0  0  0  0  0  0  0  0  0
   -6.0029    0.5893    0.0000 C   0  0  0  0  0  0  0  0  0  0  0  0
   -7.0066    1.7040    0.0000 C   0  0  0  0  0  0  0  0  0  0  0  0
   -6.4664   -0.8373    0.0000 C   0  0  0  0  0  0  0  0  0  0  0  0
   -7.9336   -1.1492    0.0000 O   0  0  0  0  0  0  0  0  0  0  0  0
   -5.4627   -1.9520    0.0000 N   0  0  0  0  0  0  0  0  0  0  0  0
    2.9918   -2.7549    0.0000 C   0  0  0  0  0  0  0  0  0  0  0  0
    3.9955   -1.6402    0.0000 O   0  0  0  0  0  0  0  0  0  0  0  0
    4.9858   -6.2994    0.0000 C   0  0  0  0  0  0  0  0  0  0  0  0
    3.9821   -7.4141    0.0000 O   0  0  0  0  0  0  0  0  0  0  0  0
  1  2  1  0
  2  3  2  0
  3  4  1  0
  4  5  2  0
  5  6  1  0
  6  7  2  0
  7  8  1  0
  8  9  2  0
  9 10  1  0
 10 11  2  0
 11 12  1  0
 12 13  1  0
 13 14  2  0
 13 15  1  0
 15 16  1  0
 16 17  2  0
 17 18  1  0
 18 19  2  0
 19 20  1  0
 20 21  1  0
 21 22  2  0
 22 23  1  0
 23 24  2  0
 24 25  1  0
 25 26  2  0
 12 27  2  0
 27 28  1  0
 28 29  2  0
 29 30  1  0
 30 31  1  0
 31 32  2  0
 32 33  1  0
 33 34  2  0
 34 35  1  0
 35 36  2  0
 36 37  1  0
 37 38  2  0
 38 39  1  0
 38 40  1  0
 40 41  2  0
 40 42  1  0
  9 43  1  0
 43 44  2  0
  5 45  1  0
 45 46  2  0
 45  2  1  0
 43  6  1  0
 29 10  1  0
 34 30  1  0
 42 35  1  0
 20 16  1  0
 26 21  1  0
M  END
>  <Title>  (548) 
idAAVBgen7

$$$$

     RDKit          2D

 24 27  0  0  0  0  0  0  0  0999 V2000
    3.0000    0.0000    0.0000 C   0  0  0  0  0  0  0  0  0  0  0  0
    1.5000    0.0000    0.0000 C   0  0  0  0  0  0  0  0  0  0  0  0
    0.7500   -1.2990    0.0000 C   0  0  0  0  0  0  0  0  0  0  0  0
   -0.7500   -1.2990    0.0000 C   0  0  0  0  0  0  0  0  0  0  0  0
   -1.5000    0.0000    0.0000 C   0  0  0  0  0  0  0  0  0  0  0  0
   -3.0000    0.0000    0.0000 C   0  0  0  0  0  0  0  0  0  0  0  0
   -3.8817   -1.2135    0.0000 N   0  0  0  0  0  0  0  0  0  0  0  0
   -5.3083   -0.7500    0.0000 N   0  0  0  0  0  0  0  0  0  0  0  0
   -5.3083    0.7500    0.0000 N   0  0  0  0  0  0  0  0  0  0  0  0
   -3.8817    1.2135    0.0000 N   0  0  0  0  0  0  0  0  0  0  0  0
   -3.4182    2.6401    0.0000 C   0  0  0  0  0  0  0  0  0  0  0  0
   -1.9509    2.9520    0.0000 C   0  0  0  0  0  0  0  0  0  0  0  0
   -1.4874    4.3786    0.0000 C   0  0  0  0  0  0  0  0  0  0  0  0
   -2.4911    5.4933    0.0000 C   0  0  0  0  0  0  0  0  0  0  0  0
   -2.0276    6.9199    0.0000 C   0  0  0  0  0  0  0  0  0  0  0  0
   -0.5604    7.2317    0.0000 C   0  0  0  0  0  0  0  0  0  0  0  0
   -0.0968    8.6583    0.0000 C   0  0  0  0  0  0  0  0  0  0  0  0
   -1.1005    9.7730    0.0000 C   0  0  0  0  0  0  0  0  0  0  0  0
   -2.5677    9.4612    0.0000 C   0  0  0  0  0  0  0  0  0  0  0  0
   -3.0313    8.0346    0.0000 C   0  0  0  0  0  0  0  0  0  0  0  0
   -3.9583    5.1814    0.0000 C   0  0  0  0  0  0  0  0  0  0  0  0
   -4.4218    3.7548    0.0000 C   0  0  0  0  0  0  0  0  0  0  0  0
   -0.7500    1.2990    0.0000 N   0  0  0  0  0  0  0  0  0  0  0  0
    0.7500    1.2990    0.0000 C   0  0  0  0  0  0  0  0  0  0  0  0
  1  2  1  0
  2  3  2  0
  3  4  1  0
  4  5  2  0
  5  6  1  0
  6  7  2  0
  7  8  1  0
  8  9  2  0
  9 10  1  0
 10 11  1  0
 11 12  2  0
 12 13  1  0
 13 14  2  0
 14 15  1  0
 15 16  2  0
 16 17  1  0
 17 18  2  0
 18 19  1  0
 19 20  2  0
 14 21  1  0
 21 22  2  0
  5 23  1  0
 23 24  2  0
 24  2  1  0
 10  6  1  0
 22 11  1  0
 20 15  1  0
M  END
>  <Title>  (549) 
idAAVCgen7

$$$$

     RDKit          2D

 59 68  0  0  0  0  0  0  0  0999 V2000
    3.7500   -1.2990    0.0000 C   0  0  0  0  0  0  0  0  0  0  0  0
    3.0000    0.0000    0.0000 O   0  0  0  0  0  0  0  0  0  0  0  0
    1.5000    0.0000    0.0000 C   0  0  0  0  0  0  0  0  0  0  0  0
    0.7500   -1.2990    0.0000 C   0  0  0  0  0  0  0  0  0  0  0  0
   -0.7500   -1.2990    0.0000 C   0  0  0  0  0  0  0  0  0  0  0  0
   -1.5000    0.0000    0.0000 C   0  0  0  0  0  0  0  0  0  0  0  0
   -3.0000    0.0000    0.0000 C   0  0  0  0  0  0  0  0  0  0  0  0
   -3.8817   -1.2135    0.0000 N   0  0  0  0  0  0  0  0  0  0  0  0
   -5.3083   -0.7500    0.0000 N   0  0  0  0  0  0  0  0  0  0  0  0
   -5.3083    0.7500    0.0000 N   0  0  0  0  0  0  0  0  0  0  0  0
   -3.8817    1.2135    0.0000 N   0  0  0  0  0  0  0  0  0  0  0  0
   -3.4182    2.6401    0.0000 C   0  0  0  0  0  0  0  0  0  0  0  0
   -1.9509    2.9520    0.0000 C   0  0  0  0  0  0  0  0  0  0  0  0
   -1.4874    4.3786    0.0000 C   0  0  0  0  0  0  0  0  0  0  0  0
   -2.4911    5.4933    0.0000 C   0  0  0  0  0  0  0  0  0  0  0  0
   -2.0276    6.9199    0.0000 C   0  0  0  0  0  0  0  0  0  0  0  0
   -2.9093    8.1334    0.0000 N   0  0  0  0  0  0  0  0  0  0  0  0
   -2.0276    9.3469    0.0000 N   0  0  0  0  0  0  0  0  0  0  0  0
   -0.6010    8.8834    0.0000 N   0  0  0  0  0  0  0  0  0  0  0  0
   -0.6010    7.3834    0.0000 N   0  0  0  0  0  0  0  0  0  0  0  0
    0.6125    6.5017    0.0000 C   0  0  0  0  0  0  0  0  0  0  0  0
    0.4557    5.0099    0.0000 C   0  0  0  0  0  0  0  0  0  0  0  0
    1.6693    4.1283    0.0000 C   0  0  0  0  0  0  0  0  0  0  0  0
    3.0396    4.7384    0.0000 C   0  0  0  0  0  0  0  0  0  0  0  0
    4.2531    3.8567    0.0000 C   0  0  0  0  0  0  0  0  0  0  0  0
    4.0963    2.3649    0.0000 C   0  0  0  0  0  0  0  0  0  0  0  0
    5.3098    1.4832    0.0000 C   0  0  0  0  0  0  0  0  0  0  0  0
    6.6802    2.0933    0.0000 C   0  0  0  0  0  0  0  0  0  0  0  0
    6.8370    3.5851    0.0000 C   0  0  0  0  0  0  0  0  0  0  0  0
    5.6234    4.4668    0.0000 C   0  0  0  0  0  0  0  0  0  0  0  0
    3.1964    6.2301    0.0000 C   0  0  0  0  0  0  0  0  0  0  0  0
    1.9829    7.1118    0.0000 C   0  0  0  0  0  0  0  0  0  0  0  0
   -3.9583    5.1814    0.0000 C   0  0  0  0  0  0  0  0  0  0  0  0
   -4.4218    3.7548    0.0000 C   0  0  0  0  0  0  0  0  0  0  0  0
   -5.8891    3.4430    0.0000 C   0  0  0  0  0  0  0  0  0  0  0  0
   -6.8928    4.5577    0.0000 C   0  0  0  0  0  0  0  0  0  0  0  0
   -8.3600    4.2458    0.0000 C   0  0  0  0  0  0  0  0  0  0  0  0
   -8.8235    2.8192    0.0000 C   0  0  0  0  0  0  0  0  0  0  0  0
  -10.2907    2.5074    0.0000 C   0  0  0  0  0  0  0  0  0  0  0  0
  -10.9008    1.1370    0.0000 N   0  0  0  0  0  0  0  0  0  0  0  0
  -12.3926    1.2938    0.0000 N   0  0  0  0  0  0  0  0  0  0  0  0
  -12.7045    2.7611    0.0000 N   0  0  0  0  0  0  0  0  0  0  0  0
  -11.4055    3.5111    0.0000 N   0  0  0  0  0  0  0  0  0  0  0  0
  -11.2487    5.0028    0.0000 C   0  0  0  0  0  0  0  0  0  0  0  0
   -9.8783    5.6129    0.0000 C   0  0  0  0  0  0  0  0  0  0  0  0
   -9.7215    7.1047    0.0000 C   0  0  0  0  0  0  0  0  0  0  0  0
  -10.9351    7.9864    0.0000 C   0  0  0  0  0  0  0  0  0  0  0  0
  -10.7783    9.4782    0.0000 C   0  0  0  0  0  0  0  0  0  0  0  0
   -9.4080   10.0883    0.0000 C   0  0  0  0  0  0  0  0  0  0  0  0
   -9.2512   11.5801    0.0000 C   0  0  0  0  0  0  0  0  0  0  0  0
  -10.4647   12.4618    0.0000 C   0  0  0  0  0  0  0  0  0  0  0  0
  -11.8350   11.8516    0.0000 C   0  0  0  0  0  0  0  0  0  0  0  0
  -11.9918   10.3599    0.0000 C   0  0  0  0  0  0  0  0  0  0  0  0
  -12.3054    7.3763    0.0000 C   0  0  0  0  0  0  0  0  0  0  0  0
  -12.4622    5.8845    0.0000 C   0  0  0  0  0  0  0  0  0  0  0  0
   -7.8198    1.7045    0.0000 C   0  0  0  0  0  0  0  0  0  0  0  0
   -6.3526    2.0164    0.0000 C   0  0  0  0  0  0  0  0  0  0  0  0
   -0.7500    1.2990    0.0000 C   0  0  0  0  0  0  0  0  0  0  0  0
    0.7500    1.2990    0.0000 C   0  0  0  0  0  0  0  0  0  0  0  0
  1  2  1  0
  2  3  1  0
  3  4  2  0
  4  5  1  0
  5  6  2  0
  6  7  1  0
  7  8  2  0
  8  9  1  0
  9 10  2  0
 10 11  1  0
 11 12  1  0
 12 13  2  0
 13 14  1  0
 14 15  2  0
 15 16  1  0
 16 17  2  0
 17 18  1  0
 18 19  2  0
 19 20  1  0
 20 21  1  0
 21 22  2  0
 22 23  1  0
 23 24  2  0
 24 25  1  0
 25 26  2  0
 26 27  1  0
 27 28  2  0
 28 29  1  0
 29 30  2  0
 24 31  1  0
 31 32  2  0
 15 33  1  0
 33 34  2  0
 34 35  1  0
 35 36  2  0
 36 37  1  0
 37 38  2  0
 38 39  1  0
 39 40  2  0
 40 41  1  0
 41 42  2  0
 42 43  1  0
 43 44  1  0
 44 45  2  0
 45 46  1  0
 46 47  2  0
 47 48  1  0
 48 49  2  0
 49 50  1  0
 50 51  2  0
 51 52  1  0
 52 53  2  0
 47 54  1  0
 54 55  2  0
 38 56  1  0
 56 57  2  0
  6 58  1  0
 58 59  2  0
 59  3  1  0
 11  7  1  0
 34 12  1  0
 57 35  1  0
 20 16  1  0
 32 21  1  0
 43 39  1  0
 55 44  1  0
 30 25  1  0
 53 48  1  0
M  END
>  <Title>  (550) 
idAAVDgen7

$$$$

     RDKit          2D

 13 13  0  0  0  0  0  0  0  0999 V2000
    6.2286   -2.5981    0.0000 C   0  0  0  0  0  0  0  0  0  0  0  0
    5.4786   -1.2990    0.0000 C   0  0  0  0  0  0  0  0  0  0  0  0
    6.2286   -0.0000    0.0000 O   0  0  0  0  0  0  0  0  0  0  0  0
    3.9786   -1.2990    0.0000 N   0  0  0  0  0  0  0  0  0  0  0  0
    3.2286   -0.0000    0.0000 C   0  0  0  0  0  0  0  0  0  0  0  0
    3.9786    1.2990    0.0000 O   0  0  0  0  0  0  0  0  0  0  0  0
    1.7286    0.0000    0.0000 C   0  0  0  0  0  0  0  0  0  0  0  0
    1.0777    1.3515    0.0000 C   0  0  0  0  0  0  0  0  0  0  0  0
   -0.3846    1.6852    0.0000 C   0  0  0  0  0  0  0  0  0  0  0  0
   -1.5574    0.7500    0.0000 C   0  0  0  0  0  0  0  0  0  0  0  0
   -1.5574   -0.7500    0.0000 C   0  0  0  0  0  0  0  0  0  0  0  0
   -0.3846   -1.6852    0.0000 C   0  0  0  0  0  0  0  0  0  0  0  0
    1.0777   -1.3515    0.0000 C   0  0  0  0  0  0  0  0  0  0  0  0
  1  2  1  0
  2  3  2  0
  2  4  1  0
  4  5  1  0
  5  6  2  0
  5  7  1  0
  7  8  1  0
  8  9  1  0
  9 10  1  0
 10 11  1  0
 11 12  1  0
 12 13  1  0
 13  7  1  0
M  END
>  <Title>  (551) 
idAAVEgen7

$$$$

     RDKit          2D

 19 21  0  0  0  0  0  0  0  0999 V2000
    3.0000    0.0000    0.0000 C   0  0  0  0  0  0  0  0  0  0  0  0
    1.5000    0.0000    0.0000 C   0  0  0  0  0  0  0  0  0  0  0  0
    0.7500   -1.2990    0.0000 C   0  0  0  0  0  0  0  0  0  0  0  0
   -0.7500   -1.2990    0.0000 C   0  0  0  0  0  0  0  0  0  0  0  0
   -1.5000    0.0000    0.0000 C   0  0  0  0  0  0  0  0  0  0  0  0
   -3.0000    0.0000    0.0000 C   0  0  0  0  0  0  0  0  0  0  0  0
   -3.8817   -1.2135    0.0000 N   0  0  0  0  0  0  0  0  0  0  0  0
   -5.3083   -0.7500    0.0000 N   0  0  0  0  0  0  0  0  0  0  0  0
   -5.3083    0.7500    0.0000 N   0  0  0  0  0  0  0  0  0  0  0  0
   -3.8817    1.2135    0.0000 N   0  0  0  0  0  0  0  0  0  0  0  0
   -3.4182    2.6401    0.0000 C   0  0  0  0  0  0  0  0  0  0  0  0
   -1.9509    2.9520    0.0000 C   0  0  0  0  0  0  0  0  0  0  0  0
   -1.4874    4.3786    0.0000 C   0  0  0  0  0  0  0  0  0  0  0  0
   -2.4911    5.4933    0.0000 C   0  0  0  0  0  0  0  0  0  0  0  0
   -3.9583    5.1814    0.0000 N   0  0  0  0  0  0  0  0  0  0  0  0
   -4.4218    3.7548    0.0000 C   0  0  0  0  0  0  0  0  0  0  0  0
   -5.8891    3.4430    0.0000 O   0  0  0  0  0  0  0  0  0  0  0  0
   -0.7500    1.2990    0.0000 N   0  0  0  0  0  0  0  0  0  0  0  0
    0.7500    1.2990    0.0000 C   0  0  0  0  0  0  0  0  0  0  0  0
  1  2  1  0
  2  3  2  0
  3  4  1  0
  4  5  2  0
  5  6  1  0
  6  7  2  0
  7  8  1  0
  8  9  2  0
  9 10  1  0
 10 11  1  0
 11 12  2  0
 12 13  1  0
 13 14  2  0
 14 15  1  0
 15 16  1  0
 16 17  2  0
  5 18  1  0
 18 19  1  0
 19  2  1  0
 10  6  1  0
 16 11  1  0
M  END
>  <Title>  (552) 
idAAVFgen7

$$$$

     RDKit          2D

 43 49  0  0  0  0  0  0  0  0999 V2000
    7.5646   -0.1148    0.0000 C   0  0  0  0  0  0  0  0  0  0  0  0
    6.0974   -0.4266    0.0000 C   0  0  0  0  0  0  0  0  0  0  0  0
    4.9826    0.5771    0.0000 C   0  0  0  0  0  0  0  0  0  0  0  0
    3.6836   -0.1729    0.0000 C   0  0  0  0  0  0  0  0  0  0  0  0
    3.9955   -1.6402    0.0000 C   0  0  0  0  0  0  0  0  0  0  0  0
    2.9918   -2.7549    0.0000 C   0  0  0  0  0  0  0  0  0  0  0  0
    3.3037   -4.2221    0.0000 N   0  0  0  0  0  0  0  0  0  0  0  0
    2.0046   -4.9721    0.0000 N   0  0  0  0  0  0  0  0  0  0  0  0
    0.8899   -3.9684    0.0000 N   0  0  0  0  0  0  0  0  0  0  0  0
    1.5000   -2.5981    0.0000 N   0  0  0  0  0  0  0  0  0  0  0  0
    0.7500   -1.2990    0.0000 C   0  0  0  0  0  0  0  0  0  0  0  0
    1.5000    0.0000    0.0000 C   0  0  0  0  0  0  0  0  0  0  0  0
    0.7500    1.2990    0.0000 C   0  0  0  0  0  0  0  0  0  0  0  0
   -0.7500    1.2990    0.0000 C   0  0  0  0  0  0  0  0  0  0  0  0
   -1.5000    2.5981    0.0000 C   0  0  0  0  0  0  0  0  0  0  0  0
   -3.0000    2.5981    0.0000 O   0  0  0  0  0  0  0  0  0  0  0  0
   -0.7500    3.8971    0.0000 N   0  0  0  0  0  0  0  0  0  0  0  0
   -1.5000    5.1962    0.0000 C   0  0  0  0  0  0  0  0  0  0  0  0
   -2.9918    5.3529    0.0000 N   0  0  0  0  0  0  0  0  0  0  0  0
   -3.3037    6.8202    0.0000 N   0  0  0  0  0  0  0  0  0  0  0  0
   -2.0046    7.5702    0.0000 N   0  0  0  0  0  0  0  0  0  0  0  0
   -0.8899    6.5665    0.0000 N   0  0  0  0  0  0  0  0  0  0  0  0
    0.5773    6.8783    0.0000 C   0  0  0  0  0  0  0  0  0  0  0  0
    1.5810    5.7636    0.0000 C   0  0  0  0  0  0  0  0  0  0  0  0
    3.0482    6.0755    0.0000 C   0  0  0  0  0  0  0  0  0  0  0  0
    3.5118    7.5021    0.0000 C   0  0  0  0  0  0  0  0  0  0  0  0
    4.9790    7.8139    0.0000 C   0  0  0  0  0  0  0  0  0  0  0  0
    5.9827    6.6992    0.0000 C   0  0  0  0  0  0  0  0  0  0  0  0
    7.4499    7.0111    0.0000 C   0  0  0  0  0  0  0  0  0  0  0  0
    7.9134    8.4377    0.0000 C   0  0  0  0  0  0  0  0  0  0  0  0
    6.9097    9.5524    0.0000 C   0  0  0  0  0  0  0  0  0  0  0  0
    5.4425    9.2405    0.0000 C   0  0  0  0  0  0  0  0  0  0  0  0
    2.5081    8.6168    0.0000 C   0  0  0  0  0  0  0  0  0  0  0  0
    1.0409    8.3049    0.0000 C   0  0  0  0  0  0  0  0  0  0  0  0
    0.0372    9.4196    0.0000 C   0  0  0  0  0  0  0  0  0  0  0  0
    0.5007   10.8462    0.0000 C   0  0  0  0  0  0  0  0  0  0  0  0
   -0.5030   11.9609    0.0000 C   0  0  0  0  0  0  0  0  0  0  0  0
   -1.9702   11.6491    0.0000 C   0  0  0  0  0  0  0  0  0  0  0  0
   -2.4338   10.2225    0.0000 C   0  0  0  0  0  0  0  0  0  0  0  0
   -1.4301    9.1078    0.0000 C   0  0  0  0  0  0  0  0  0  0  0  0
   -1.5000    0.0000    0.0000 C   0  0  0  0  0  0  0  0  0  0  0  0
   -0.7500   -1.2990    0.0000 C   0  0  0  0  0  0  0  0  0  0  0  0
    5.4873   -1.7969    0.0000 C   0  0  0  0  0  0  0  0  0  0  0  0
  1  2  1  0
  2  3  2  0
  3  4  1  0
  4  5  2  0
  5  6  1  0
  6  7  2  0
  7  8  1  0
  8  9  2  0
  9 10  1  0
 10 11  1  0
 11 12  2  0
 12 13  1  0
 13 14  2  0
 14 15  1  0
 15 16  2  0
 15 17  1  0
 17 18  1  0
 18 19  2  0
 19 20  1  0
 20 21  2  0
 21 22  1  0
 22 23  1  0
 23 24  2  0
 24 25  1  0
 25 26  2  0
 26 27  1  0
 27 28  2  0
 28 29  1  0
 29 30  2  0
 30 31  1  0
 31 32  2  0
 26 33  1  0
 33 34  2  0
 34 35  1  0
 35 36  2  0
 36 37  1  0
 37 38  2  0
 38 39  1  0
 39 40  2  0
 14 41  1  0
 41 42  2  0
  5 43  1  0
 43  2  1  0
 10  6  1  0
 42 11  1  0
 22 18  1  0
 34 23  1  0
 40 35  1  0
 32 27  1  0
M  END
>  <Title>  (553) 
idAAVGgen7

$$$$

     RDKit          2D

 48 55  0  0  0  0  0  0  0  0999 V2000
   10.0355    0.6881    0.0000 C   0  0  0  0  0  0  0  0  0  0  0  0
    8.5683    0.3762    0.0000 C   0  0  0  0  0  0  0  0  0  0  0  0
    7.4536    1.3799    0.0000 C   0  0  0  0  0  0  0  0  0  0  0  0
    6.1545    0.6299    0.0000 C   0  0  0  0  0  0  0  0  0  0  0  0
    6.4664   -0.8373    0.0000 C   0  0  0  0  0  0  0  0  0  0  0  0
    5.4627   -1.9520    0.0000 C   0  0  0  0  0  0  0  0  0  0  0  0
    5.9262   -3.3786    0.0000 O   0  0  0  0  0  0  0  0  0  0  0  0
    3.9955   -1.6402    0.0000 N   0  0  0  0  0  0  0  0  0  0  0  0
    2.9918   -2.7549    0.0000 C   0  0  0  0  0  0  0  0  0  0  0  0
    3.3037   -4.2221    0.0000 N   0  0  0  0  0  0  0  0  0  0  0  0
    2.0046   -4.9721    0.0000 N   0  0  0  0  0  0  0  0  0  0  0  0
    0.8899   -3.9684    0.0000 N   0  0  0  0  0  0  0  0  0  0  0  0
    1.5000   -2.5981    0.0000 N   0  0  0  0  0  0  0  0  0  0  0  0
    0.7500   -1.2990    0.0000 C   0  0  0  0  0  0  0  0  0  0  0  0
    1.5000    0.0000    0.0000 C   0  0  0  0  0  0  0  0  0  0  0  0
    0.7500    1.2990    0.0000 C   0  0  0  0  0  0  0  0  0  0  0  0
   -0.7500    1.2990    0.0000 C   0  0  0  0  0  0  0  0  0  0  0  0
   -1.5000    2.5981    0.0000 C   0  0  0  0  0  0  0  0  0  0  0  0
   -2.9918    2.7549    0.0000 N   0  0  0  0  0  0  0  0  0  0  0  0
   -3.3037    4.2221    0.0000 N   0  0  0  0  0  0  0  0  0  0  0  0
   -2.0046    4.9721    0.0000 N   0  0  0  0  0  0  0  0  0  0  0  0
   -0.8899    3.9684    0.0000 N   0  0  0  0  0  0  0  0  0  0  0  0
    0.5773    4.2803    0.0000 C   0  0  0  0  0  0  0  0  0  0  0  0
    1.5810    3.1655    0.0000 C   0  0  0  0  0  0  0  0  0  0  0  0
    3.0482    3.4774    0.0000 C   0  0  0  0  0  0  0  0  0  0  0  0
    3.5118    4.9040    0.0000 C   0  0  0  0  0  0  0  0  0  0  0  0
    2.5081    6.0187    0.0000 C   0  0  0  0  0  0  0  0  0  0  0  0
    1.0409    5.7068    0.0000 C   0  0  0  0  0  0  0  0  0  0  0  0
   -1.5000    0.0000    0.0000 C   0  0  0  0  0  0  0  0  0  0  0  0
   -0.7500   -1.2990    0.0000 C   0  0  0  0  0  0  0  0  0  0  0  0
   -1.5000   -2.5981    0.0000 C   0  0  0  0  0  0  0  0  0  0  0  0
   -0.8899   -3.9684    0.0000 C   0  0  0  0  0  0  0  0  0  0  0  0
   -2.0046   -4.9721    0.0000 C   0  0  0  0  0  0  0  0  0  0  0  0
   -3.3037   -4.2221    0.0000 C   0  0  0  0  0  0  0  0  0  0  0  0
   -4.6740   -4.8322    0.0000 C   0  0  0  0  0  0  0  0  0  0  0  0
   -4.9858   -6.2994    0.0000 N   0  0  0  0  0  0  0  0  0  0  0  0
   -6.4776   -6.4562    0.0000 C   0  0  0  0  0  0  0  0  0  0  0  0
   -7.0877   -5.0859    0.0000 N   0  0  0  0  0  0  0  0  0  0  0  0
   -5.9730   -4.0822    0.0000 N   0  0  0  0  0  0  0  0  0  0  0  0
   -6.1298   -2.5904    0.0000 C   0  0  0  0  0  0  0  0  0  0  0  0
   -4.9163   -1.7087    0.0000 C   0  0  0  0  0  0  0  0  0  0  0  0
   -5.0731   -0.2170    0.0000 C   0  0  0  0  0  0  0  0  0  0  0  0
   -6.4434    0.3932    0.0000 C   0  0  0  0  0  0  0  0  0  0  0  0
   -7.6569   -0.4885    0.0000 C   0  0  0  0  0  0  0  0  0  0  0  0
   -7.5001   -1.9803    0.0000 C   0  0  0  0  0  0  0  0  0  0  0  0
   -2.9918   -2.7549    0.0000 C   0  0  0  0  0  0  0  0  0  0  0  0
   -3.9955   -1.6402    0.0000 O   0  0  0  0  0  0  0  0  0  0  0  0
    7.9582   -0.9941    0.0000 N   0  0  0  0  0  0  0  0  0  0  0  0
  1  2  1  0
  2  3  2  0
  3  4  1  0
  4  5  2  0
  5  6  1  0
  6  7  2  0
  6  8  1  0
  8  9  1  0
  9 10  2  0
 10 11  1  0
 11 12  2  0
 12 13  1  0
 13 14  1  0
 14 15  2  0
 15 16  1  0
 16 17  2  0
 17 18  1  0
 18 19  2  0
 19 20  1  0
 20 21  2  0
 21 22  1  0
 22 23  1  0
 23 24  2  0
 24 25  1  0
 25 26  2  0
 26 27  1  0
 27 28  2  0
 17 29  1  0
 29 30  2  0
 30 31  1  0
 31 32  2  0
 32 33  1  0
 33 34  2  0
 34 35  1  0
 35 36  2  0
 36 37  1  0
 37 38  2  0
 38 39  1  0
 39 40  1  0
 40 41  2  0
 41 42  1  0
 42 43  2  0
 43 44  1  0
 44 45  2  0
 34 46  1  0
 46 47  2  0
  5 48  1  0
 48  2  1  0
 13  9  1  0
 30 14  1  0
 46 31  1  0
 22 18  1  0
 28 23  1  0
 39 35  1  0
 45 40  1  0
M  END
>  <Title>  (554) 
idAAVHgen7

$$$$

     RDKit          2D

 38 42  0  0  0  0  0  0  0  0999 V2000
    3.0000    2.5981    0.0000 C   0  0  0  0  0  0  0  0  0  0  0  0
    1.5000    2.5981    0.0000 C   0  0  0  0  0  0  0  0  0  0  0  0
    0.7500    3.8971    0.0000 C   0  0  0  0  0  0  0  0  0  0  0  0
   -0.7500    3.8971    0.0000 C   0  0  0  0  0  0  0  0  0  0  0  0
   -1.5000    2.5981    0.0000 C   0  0  0  0  0  0  0  0  0  0  0  0
   -3.0000    2.5981    0.0000 C   0  0  0  0  0  0  0  0  0  0  0  0
   -3.7500    3.8971    0.0000 O   0  0  0  0  0  0  0  0  0  0  0  0
   -3.7500    1.2990    0.0000 N   0  0  0  0  0  0  0  0  0  0  0  0
   -5.2500    1.2990    0.0000 C   0  0  0  0  0  0  0  0  0  0  0  0
   -6.0000    2.5981    0.0000 C   0  0  0  0  0  0  0  0  0  0  0  0
   -7.5000    2.5981    0.0000 C   0  0  0  0  0  0  0  0  0  0  0  0
   -8.2500    1.2990    0.0000 C   0  0  0  0  0  0  0  0  0  0  0  0
   -9.7500    1.2990    0.0000 N   0  0  0  0  0  0  0  0  0  0  0  0
  -10.5000    2.5981    0.0000 C   0  0  0  0  0  0  0  0  0  0  0  0
   -9.7500    3.8971    0.0000 O   0  0  0  0  0  0  0  0  0  0  0  0
  -12.0000    2.5981    0.0000 C   0  0  0  0  0  0  0  0  0  0  0  0
  -12.8817    1.3846    0.0000 N   0  0  0  0  0  0  0  0  0  0  0  0
  -14.3083    1.8481    0.0000 N   0  0  0  0  0  0  0  0  0  0  0  0
  -14.3083    3.3481    0.0000 N   0  0  0  0  0  0  0  0  0  0  0  0
  -12.8817    3.8116    0.0000 N   0  0  0  0  0  0  0  0  0  0  0  0
  -12.4182    5.2382    0.0000 C   0  0  0  0  0  0  0  0  0  0  0  0
  -10.9509    5.5501    0.0000 C   0  0  0  0  0  0  0  0  0  0  0  0
  -10.4874    6.9766    0.0000 C   0  0  0  0  0  0  0  0  0  0  0  0
  -11.4911    8.0914    0.0000 C   0  0  0  0  0  0  0  0  0  0  0  0
  -12.9583    7.7795    0.0000 C   0  0  0  0  0  0  0  0  0  0  0  0
  -13.4218    6.3529    0.0000 C   0  0  0  0  0  0  0  0  0  0  0  0
   -7.5000    0.0000    0.0000 C   0  0  0  0  0  0  0  0  0  0  0  0
   -6.0000    0.0000    0.0000 C   0  0  0  0  0  0  0  0  0  0  0  0
   -5.2500   -1.2990    0.0000 C   0  0  0  0  0  0  0  0  0  0  0  0
   -3.7500   -1.2990    0.0000 C   0  0  0  0  0  0  0  0  0  0  0  0
   -3.0000   -2.5981    0.0000 C   0  0  0  0  0  0  0  0  0  0  0  0
   -3.7500   -3.8971    0.0000 C   0  0  0  0  0  0  0  0  0  0  0  0
   -3.0000   -5.1962    0.0000 C   0  0  0  0  0  0  0  0  0  0  0  0
   -5.2500   -3.8971    0.0000 C   0  0  0  0  0  0  0  0  0  0  0  0
   -6.0000   -5.1962    0.0000 O   0  0  0  0  0  0  0  0  0  0  0  0
   -6.0000   -2.5981    0.0000 N   0  0  0  0  0  0  0  0  0  0  0  0
   -0.7500    1.2990    0.0000 C   0  0  0  0  0  0  0  0  0  0  0  0
    0.7500    1.2990    0.0000 C   0  0  0  0  0  0  0  0  0  0  0  0
  1  2  1  0
  2  3  2  0
  3  4  1  0
  4  5  2  0
  5  6  1  0
  6  7  2  0
  6  8  1  0
  8  9  1  0
  9 10  2  0
 10 11  1  0
 11 12  2  0
 12 13  1  0
 13 14  1  0
 14 15  2  0
 14 16  1  0
 16 17  2  0
 17 18  1  0
 18 19  2  0
 19 20  1  0
 20 21  1  0
 21 22  2  0
 22 23  1  0
 23 24  2  0
 24 25  1  0
 25 26  2  0
 12 27  1  0
 27 28  2  0
 28 29  1  0
 29 30  2  0
 30 31  1  0
 31 32  2  0
 32 33  1  0
 32 34  1  0
 34 35  2  0
 34 36  1  0
  5 37  1  0
 37 38  2  0
 38  2  1  0
 28  9  1  0
 36 29  1  0
 20 16  1  0
 26 21  1  0
M  END
>  <Title>  (555) 
idAAVIgen7

$$$$

     RDKit          2D

 52 58  0  0  0  0  0  0  0  0999 V2000
    3.0000    0.0000    0.0000 C   0  0  0  0  0  0  0  0  0  0  0  0
    1.5000    0.0000    0.0000 C   0  0  0  0  0  0  0  0  0  0  0  0
    0.7500   -1.2990    0.0000 C   0  0  0  0  0  0  0  0  0  0  0  0
   -0.7500   -1.2990    0.0000 C   0  0  0  0  0  0  0  0  0  0  0  0
   -1.5000    0.0000    0.0000 C   0  0  0  0  0  0  0  0  0  0  0  0
   -3.0000    0.0000    0.0000 C   0  0  0  0  0  0  0  0  0  0  0  0
   -3.7500   -1.2990    0.0000 O   0  0  0  0  0  0  0  0  0  0  0  0
   -3.7500    1.2990    0.0000 N   0  0  0  0  0  0  0  0  0  0  0  0
   -5.2500    1.2990    0.0000 C   0  0  0  0  0  0  0  0  0  0  0  0
   -6.1317    0.0855    0.0000 N   0  0  0  0  0  0  0  0  0  0  0  0
   -7.5583    0.5490    0.0000 N   0  0  0  0  0  0  0  0  0  0  0  0
   -7.5583    2.0490    0.0000 N   0  0  0  0  0  0  0  0  0  0  0  0
   -6.1317    2.5126    0.0000 N   0  0  0  0  0  0  0  0  0  0  0  0
   -5.6682    3.9391    0.0000 C   0  0  0  0  0  0  0  0  0  0  0  0
   -4.2009    4.2510    0.0000 C   0  0  0  0  0  0  0  0  0  0  0  0
   -3.7374    5.6776    0.0000 C   0  0  0  0  0  0  0  0  0  0  0  0
   -4.7411    6.7923    0.0000 C   0  0  0  0  0  0  0  0  0  0  0  0
   -4.2776    8.2189    0.0000 C   0  0  0  0  0  0  0  0  0  0  0  0
   -5.2813    9.3336    0.0000 O   0  0  0  0  0  0  0  0  0  0  0  0
   -2.8104    8.5308    0.0000 N   0  0  0  0  0  0  0  0  0  0  0  0
   -2.3468    9.9574    0.0000 O   0  0  0  0  0  0  0  0  0  0  0  0
   -6.2083    6.4805    0.0000 N   0  0  0  0  0  0  0  0  0  0  0  0
   -6.6718    5.0539    0.0000 C   0  0  0  0  0  0  0  0  0  0  0  0
   -8.1391    4.7420    0.0000 C   0  0  0  0  0  0  0  0  0  0  0  0
   -8.7492    3.3717    0.0000 N   0  0  0  0  0  0  0  0  0  0  0  0
  -10.2410    3.5285    0.0000 N   0  0  0  0  0  0  0  0  0  0  0  0
  -10.5528    4.9957    0.0000 N   0  0  0  0  0  0  0  0  0  0  0  0
   -9.2538    5.7457    0.0000 N   0  0  0  0  0  0  0  0  0  0  0  0
   -9.0970    7.2375    0.0000 C   0  0  0  0  0  0  0  0  0  0  0  0
  -10.2117    8.2412    0.0000 C   0  0  0  0  0  0  0  0  0  0  0  0
   -9.6016    9.6115    0.0000 C   0  0  0  0  0  0  0  0  0  0  0  0
   -8.1098    9.4547    0.0000 C   0  0  0  0  0  0  0  0  0  0  0  0
   -7.1061   10.5694    0.0000 C   0  0  0  0  0  0  0  0  0  0  0  0
   -5.6389   10.2575    0.0000 O   0  0  0  0  0  0  0  0  0  0  0  0
   -7.5697   11.9960    0.0000 N   0  0  0  0  0  0  0  0  0  0  0  0
   -6.5660   13.1107    0.0000 C   0  0  0  0  0  0  0  0  0  0  0  0
   -5.0742   12.9539    0.0000 N   0  0  0  0  0  0  0  0  0  0  0  0
   -4.4641   14.3242    0.0000 N   0  0  0  0  0  0  0  0  0  0  0  0
   -5.5788   15.3279    0.0000 N   0  0  0  0  0  0  0  0  0  0  0  0
   -6.8778   14.5779    0.0000 N   0  0  0  0  0  0  0  0  0  0  0  0
   -8.2481   15.1880    0.0000 C   0  0  0  0  0  0  0  0  0  0  0  0
   -9.5472   14.4380    0.0000 C   0  0  0  0  0  0  0  0  0  0  0  0
  -10.6619   15.4417    0.0000 C   0  0  0  0  0  0  0  0  0  0  0  0
  -10.0518   16.8121    0.0000 C   0  0  0  0  0  0  0  0  0  0  0  0
  -10.8018   18.1111    0.0000 C   0  0  0  0  0  0  0  0  0  0  0  0
   -8.5600   16.6553    0.0000 C   0  0  0  0  0  0  0  0  0  0  0  0
   -7.5563   17.7700    0.0000 O   0  0  0  0  0  0  0  0  0  0  0  0
   -7.7980    7.9875    0.0000 C   0  0  0  0  0  0  0  0  0  0  0  0
   -6.4276    7.3774    0.0000 O   0  0  0  0  0  0  0  0  0  0  0  0
   -0.7500    1.2990    0.0000 C   0  0  0  0  0  0  0  0  0  0  0  0
   -1.5000    2.5981    0.0000 O   0  0  0  0  0  0  0  0  0  0  0  0
    0.7500    1.2990    0.0000 N   0  0  0  0  0  0  0  0  0  0  0  0
  1  2  1  0
  2  3  2  0
  3  4  1  0
  4  5  2  0
  5  6  1  0
  6  7  2  0
  6  8  1  0
  8  9  1  0
  9 10  2  0
 10 11  1  0
 11 12  2  0
 12 13  1  0
 13 14  1  0
 14 15  2  0
 15 16  1  0
 16 17  2  0
 17 18  1  0
 18 19  2  0
 18 20  1  0
 20 21  1  0
 17 22  1  0
 22 23  1  0
 23 24  1  0
 24 25  2  0
 25 26  1  0
 26 27  2  0
 27 28  1  0
 28 29  1  0
 29 30  2  0
 30 31  1  0
 31 32  2  0
 32 33  1  0
 33 34  2  0
 33 35  1  0
 35 36  1  0
 36 37  2  0
 37 38  1  0
 38 39  2  0
 39 40  1  0
 40 41  1  0
 41 42  2  0
 42 43  1  0
 43 44  2  0
 44 45  1  0
 44 46  1  0
 46 47  2  0
 32 48  1  0
 48 49  2  0
  5 50  1  0
 50 51  2  0
 50 52  1  0
 52  2  1  0
 13  9  1  0
 23 14  1  0
 28 24  1  0
 48 29  1  0
 40 36  1  0
 46 41  1  0
M  END
>  <Title>  (556) 
idAAVJgen7

$$$$

     RDKit          2D

 33 37  0  0  0  0  0  0  0  0999 V2000
    3.0000    0.0000    0.0000 C   0  0  0  0  0  0  0  0  0  0  0  0
    1.5000    0.0000    0.0000 C   0  0  0  0  0  0  0  0  0  0  0  0
    0.7500   -1.2990    0.0000 C   0  0  0  0  0  0  0  0  0  0  0  0
   -0.7500   -1.2990    0.0000 C   0  0  0  0  0  0  0  0  0  0  0  0
   -1.5000    0.0000    0.0000 C   0  0  0  0  0  0  0  0  0  0  0  0
   -3.0000    0.0000    0.0000 C   0  0  0  0  0  0  0  0  0  0  0  0
   -3.8817   -1.2135    0.0000 N   0  0  0  0  0  0  0  0  0  0  0  0
   -5.3083   -0.7500    0.0000 N   0  0  0  0  0  0  0  0  0  0  0  0
   -5.3083    0.7500    0.0000 N   0  0  0  0  0  0  0  0  0  0  0  0
   -3.8817    1.2135    0.0000 N   0  0  0  0  0  0  0  0  0  0  0  0
   -3.4182    2.6401    0.0000 C   0  0  0  0  0  0  0  0  0  0  0  0
   -1.9509    2.9520    0.0000 C   0  0  0  0  0  0  0  0  0  0  0  0
   -1.4874    4.3786    0.0000 C   0  0  0  0  0  0  0  0  0  0  0  0
   -2.4911    5.4933    0.0000 C   0  0  0  0  0  0  0  0  0  0  0  0
   -2.0276    6.9199    0.0000 C   0  0  0  0  0  0  0  0  0  0  0  0
   -0.5604    7.2317    0.0000 C   0  0  0  0  0  0  0  0  0  0  0  0
   -0.0968    8.6583    0.0000 C   0  0  0  0  0  0  0  0  0  0  0  0
   -1.1005    9.7730    0.0000 C   0  0  0  0  0  0  0  0  0  0  0  0
   -0.6370   11.1996    0.0000 C   0  0  0  0  0  0  0  0  0  0  0  0
   -1.6407   12.3143    0.0000 O   0  0  0  0  0  0  0  0  0  0  0  0
    0.8302   11.5115    0.0000 N   0  0  0  0  0  0  0  0  0  0  0  0
    1.2937   12.9381    0.0000 C   0  0  0  0  0  0  0  0  0  0  0  0
    2.7610   13.2499    0.0000 C   0  0  0  0  0  0  0  0  0  0  0  0
    3.2245   14.6765    0.0000 N   0  0  0  0  0  0  0  0  0  0  0  0
    2.2208   15.7912    0.0000 N   0  0  0  0  0  0  0  0  0  0  0  0
    0.7536   15.4794    0.0000 C   0  0  0  0  0  0  0  0  0  0  0  0
    0.2901   14.0528    0.0000 N   0  0  0  0  0  0  0  0  0  0  0  0
   -2.5677    9.4612    0.0000 C   0  0  0  0  0  0  0  0  0  0  0  0
   -3.0313    8.0346    0.0000 C   0  0  0  0  0  0  0  0  0  0  0  0
   -3.9583    5.1814    0.0000 C   0  0  0  0  0  0  0  0  0  0  0  0
   -4.4218    3.7548    0.0000 C   0  0  0  0  0  0  0  0  0  0  0  0
   -0.7500    1.2990    0.0000 N   0  0  0  0  0  0  0  0  0  0  0  0
    0.7500    1.2990    0.0000 C   0  0  0  0  0  0  0  0  0  0  0  0
  1  2  1  0
  2  3  2  0
  3  4  1  0
  4  5  2  0
  5  6  1  0
  6  7  2  0
  7  8  1  0
  8  9  2  0
  9 10  1  0
 10 11  1  0
 11 12  2  0
 12 13  1  0
 13 14  2  0
 14 15  1  0
 15 16  2  0
 16 17  1  0
 17 18  2  0
 18 19  1  0
 19 20  2  0
 19 21  1  0
 21 22  1  0
 22 23  2  0
 23 24  1  0
 24 25  2  0
 25 26  1  0
 26 27  2  0
 18 28  1  0
 28 29  2  0
 14 30  1  0
 30 31  2  0
  5 32  1  0
 32 33  1  0
 33  2  1  0
 10  6  1  0
 31 11  1  0
 29 15  1  0
 27 22  1  0
M  END
>  <Title>  (557) 
idAAVKgen7

$$$$

     RDKit          2D

 33 37  0  0  0  0  0  0  0  0999 V2000
    3.0000    0.0000    0.0000 C   0  0  0  0  0  0  0  0  0  0  0  0
    1.5000    0.0000    0.0000 C   0  0  0  0  0  0  0  0  0  0  0  0
    0.7500    1.2990    0.0000 C   0  0  0  0  0  0  0  0  0  0  0  0
   -0.7500    1.2990    0.0000 C   0  0  0  0  0  0  0  0  0  0  0  0
   -1.5000    0.0000    0.0000 C   0  0  0  0  0  0  0  0  0  0  0  0
   -3.0000    0.0000    0.0000 C   0  0  0  0  0  0  0  0  0  0  0  0
   -3.7500   -1.2990    0.0000 O   0  0  0  0  0  0  0  0  0  0  0  0
   -3.7500    1.2990    0.0000 N   0  0  0  0  0  0  0  0  0  0  0  0
   -5.2500    1.2990    0.0000 C   0  0  0  0  0  0  0  0  0  0  0  0
   -6.1317    0.0855    0.0000 N   0  0  0  0  0  0  0  0  0  0  0  0
   -7.5583    0.5490    0.0000 N   0  0  0  0  0  0  0  0  0  0  0  0
   -7.5583    2.0490    0.0000 N   0  0  0  0  0  0  0  0  0  0  0  0
   -6.1317    2.5126    0.0000 N   0  0  0  0  0  0  0  0  0  0  0  0
   -5.6682    3.9391    0.0000 C   0  0  0  0  0  0  0  0  0  0  0  0
   -6.5498    5.1527    0.0000 C   0  0  0  0  0  0  0  0  0  0  0  0
   -5.6682    6.3662    0.0000 N   0  0  0  0  0  0  0  0  0  0  0  0
   -4.2416    5.9027    0.0000 N   0  0  0  0  0  0  0  0  0  0  0  0
   -4.2416    4.4027    0.0000 N   0  0  0  0  0  0  0  0  0  0  0  0
   -3.0280    3.5210    0.0000 C   0  0  0  0  0  0  0  0  0  0  0  0
   -3.0280    2.0210    0.0000 C   0  0  0  0  0  0  0  0  0  0  0  0
   -1.6015    1.5575    0.0000 C   0  0  0  0  0  0  0  0  0  0  0  0
   -0.7198    2.7710    0.0000 C   0  0  0  0  0  0  0  0  0  0  0  0
    0.7802    2.7710    0.0000 C   0  0  0  0  0  0  0  0  0  0  0  0
    1.5302    4.0700    0.0000 C   0  0  0  0  0  0  0  0  0  0  0  0
    3.0302    4.0700    0.0000 C   0  0  0  0  0  0  0  0  0  0  0  0
    3.7802    2.7710    0.0000 C   0  0  0  0  0  0  0  0  0  0  0  0
    3.0302    1.4720    0.0000 C   0  0  0  0  0  0  0  0  0  0  0  0
    1.5302    1.4720    0.0000 C   0  0  0  0  0  0  0  0  0  0  0  0
   -1.6015    3.9845    0.0000 C   0  0  0  0  0  0  0  0  0  0  0  0
   -1.1379    5.4111    0.0000 O   0  0  0  0  0  0  0  0  0  0  0  0
   -0.7500   -1.2990    0.0000 N   0  0  0  0  0  0  0  0  0  0  0  0
    0.7500   -1.2990    0.0000 C   0  0  0  0  0  0  0  0  0  0  0  0
    1.5000   -2.5981    0.0000 O   0  0  0  0  0  0  0  0  0  0  0  0
  1  2  1  0
  2  3  2  0
  3  4  1  0
  4  5  2  0
  5  6  1  0
  6  7  2  0
  6  8  1  0
  8  9  1  0
  9 10  2  0
 10 11  1  0
 11 12  2  0
 12 13  1  0
 13 14  1  0
 14 15  2  0
 15 16  1  0
 16 17  2  0
 17 18  1  0
 18 19  1  0
 19 20  2  0
 20 21  1  0
 21 22  2  0
 22 23  1  0
 23 24  2  0
 24 25  1  0
 25 26  2  0
 26 27  1  0
 27 28  2  0
 22 29  1  0
 29 30  2  0
  5 31  1  0
 31 32  1  0
 32 33  2  0
 32  2  1  0
 13  9  1  0
 18 14  1  0
 29 19  1  0
 28 23  1  0
M  END
>  <Title>  (558) 
idAAVLgen7

$$$$

     RDKit          2D

 13 14  0  0  0  0  0  0  0  0999 V2000
    3.2286   -0.0000    0.0000 C   0  0  0  0  0  0  0  0  0  0  0  0
    1.7286    0.0000    0.0000 C   0  0  0  0  0  0  0  0  0  0  0  0
    1.0777    1.3515    0.0000 C   0  0  0  0  0  0  0  0  0  0  0  0
   -0.3846    1.6852    0.0000 C   0  0  0  0  0  0  0  0  0  0  0  0
   -1.5574    0.7500    0.0000 C   0  0  0  0  0  0  0  0  0  0  0  0
   -2.8564    1.5000    0.0000 O   0  0  0  0  0  0  0  0  0  0  0  0
   -4.1555    0.7500    0.0000 C   0  0  0  0  0  0  0  0  0  0  0  0
   -4.1555   -0.7500    0.0000 C   0  0  0  0  0  0  0  0  0  0  0  0
   -2.8564   -1.5000    0.0000 C   0  0  0  0  0  0  0  0  0  0  0  0
   -2.8564   -3.0000    0.0000 F   0  0  0  0  0  0  0  0  0  0  0  0
   -1.5574   -0.7500    0.0000 C   0  0  0  0  0  0  0  0  0  0  0  0
   -0.3846   -1.6852    0.0000 O   0  0  0  0  0  0  0  0  0  0  0  0
    1.0777   -1.3515    0.0000 C   0  0  0  0  0  0  0  0  0  0  0  0
  1  2  1  0
  2  3  2  0
  3  4  1  0
  4  5  2  0
  5  6  1  0
  6  7  1  0
  7  8  1  0
  8  9  1  0
  9 10  1  0
  9 11  2  0
 11 12  1  0
 12 13  1  0
 13  2  1  0
 11  5  1  0
M  END
>  <Title>  (559) 
idAAVMgen7

$$$$

     RDKit          2D

 37 41  0  0  0  0  0  0  0  0999 V2000
    3.7500   -1.2990    0.0000 C   0  0  0  0  0  0  0  0  0  0  0  0
    3.0000    0.0000    0.0000 O   0  0  0  0  0  0  0  0  0  0  0  0
    1.5000    0.0000    0.0000 C   0  0  0  0  0  0  0  0  0  0  0  0
    0.7500   -1.2990    0.0000 C   0  0  0  0  0  0  0  0  0  0  0  0
   -0.7500   -1.2990    0.0000 C   0  0  0  0  0  0  0  0  0  0  0  0
   -1.5000    0.0000    0.0000 C   0  0  0  0  0  0  0  0  0  0  0  0
   -3.0000    0.0000    0.0000 N   0  0  0  0  0  0  0  0  0  0  0  0
   -3.8817   -1.2135    0.0000 N   0  0  0  0  0  0  0  0  0  0  0  0
   -5.3083   -0.7500    0.0000 N   0  0  0  0  0  0  0  0  0  0  0  0
   -5.3083    0.7500    0.0000 N   0  0  0  0  0  0  0  0  0  0  0  0
   -3.8817    1.2135    0.0000 C   0  0  0  0  0  0  0  0  0  0  0  0
   -3.4182    2.6401    0.0000 N   0  0  0  0  0  0  0  0  0  0  0  0
   -4.4218    3.7548    0.0000 C   0  0  0  0  0  0  0  0  0  0  0  0
   -5.8891    3.4430    0.0000 O   0  0  0  0  0  0  0  0  0  0  0  0
   -3.9583    5.1814    0.0000 C   0  0  0  0  0  0  0  0  0  0  0  0
   -4.9620    6.2961    0.0000 C   0  0  0  0  0  0  0  0  0  0  0  0
   -4.4985    7.7227    0.0000 C   0  0  0  0  0  0  0  0  0  0  0  0
   -5.5022    8.8374    0.0000 C   0  0  0  0  0  0  0  0  0  0  0  0
   -6.9694    8.5256    0.0000 C   0  0  0  0  0  0  0  0  0  0  0  0
   -7.9731    9.6403    0.0000 C   0  0  0  0  0  0  0  0  0  0  0  0
   -9.4403    9.3284    0.0000 O   0  0  0  0  0  0  0  0  0  0  0  0
   -7.5096   11.0669    0.0000 N   0  0  0  0  0  0  0  0  0  0  0  0
   -8.5133   12.1816    0.0000 C   0  0  0  0  0  0  0  0  0  0  0  0
  -10.0051   12.0248    0.0000 N   0  0  0  0  0  0  0  0  0  0  0  0
  -10.6152   13.3951    0.0000 N   0  0  0  0  0  0  0  0  0  0  0  0
   -9.5004   14.3988    0.0000 N   0  0  0  0  0  0  0  0  0  0  0  0
   -8.2014   13.6488    0.0000 N   0  0  0  0  0  0  0  0  0  0  0  0
   -6.8311   14.2589    0.0000 C   0  0  0  0  0  0  0  0  0  0  0  0
   -6.5192   15.7261    0.0000 C   0  0  0  0  0  0  0  0  0  0  0  0
   -5.0274   15.8829    0.0000 C   0  0  0  0  0  0  0  0  0  0  0  0
   -4.4173   14.5126    0.0000 C   0  0  0  0  0  0  0  0  0  0  0  0
   -5.5321   13.5089    0.0000 C   0  0  0  0  0  0  0  0  0  0  0  0
   -7.4329    7.0990    0.0000 C   0  0  0  0  0  0  0  0  0  0  0  0
   -6.4292    5.9843    0.0000 C   0  0  0  0  0  0  0  0  0  0  0  0
   -0.7500    1.2990    0.0000 C   0  0  0  0  0  0  0  0  0  0  0  0
   -1.5000    2.5981    0.0000 O   0  0  0  0  0  0  0  0  0  0  0  0
    0.7500    1.2990    0.0000 N   0  0  0  0  0  0  0  0  0  0  0  0
  1  2  1  0
  2  3  1  0
  3  4  2  0
  4  5  1  0
  5  6  2  0
  6  7  1  0
  7  8  1  0
  8  9  2  0
  9 10  1  0
 10 11  2  0
 11 12  1  0
 12 13  1  0
 13 14  2  0
 13 15  1  0
 15 16  1  0
 16 17  2  0
 17 18  1  0
 18 19  2  0
 19 20  1  0
 20 21  2  0
 20 22  1  0
 22 23  1  0
 23 24  2  0
 24 25  1  0
 25 26  2  0
 26 27  1  0
 27 28  1  0
 28 29  1  0
 29 30  2  0
 30 31  1  0
 31 32  2  0
 19 33  1  0
 33 34  2  0
  6 35  1  0
 35 36  2  0
 35 37  1  0
 37  3  1  0
 11  7  1  0
 34 16  1  0
 27 23  1  0
 32 28  1  0
M  END
>  <Title>  (560) 
idAAVNgen7

$$$$

     RDKit          2D

 28 31  0  0  0  0  0  0  0  0999 V2000
    3.0000    0.0000    0.0000 C   0  0  0  0  0  0  0  0  0  0  0  0
    1.5000    0.0000    0.0000 C   0  0  0  0  0  0  0  0  0  0  0  0
    0.7500   -1.2990    0.0000 C   0  0  0  0  0  0  0  0  0  0  0  0
   -0.7500   -1.2990    0.0000 C   0  0  0  0  0  0  0  0  0  0  0  0
   -1.5000    0.0000    0.0000 C   0  0  0  0  0  0  0  0  0  0  0  0
   -3.0000    0.0000    0.0000 C   0  0  0  0  0  0  0  0  0  0  0  0
   -3.7500   -1.2990    0.0000 O   0  0  0  0  0  0  0  0  0  0  0  0
   -3.7500    1.2990    0.0000 N   0  0  0  0  0  0  0  0  0  0  0  0
   -5.2500    1.2990    0.0000 C   0  0  0  0  0  0  0  0  0  0  0  0
   -6.1317    0.0855    0.0000 N   0  0  0  0  0  0  0  0  0  0  0  0
   -7.5583    0.5490    0.0000 N   0  0  0  0  0  0  0  0  0  0  0  0
   -7.5583    2.0490    0.0000 N   0  0  0  0  0  0  0  0  0  0  0  0
   -6.1317    2.5126    0.0000 N   0  0  0  0  0  0  0  0  0  0  0  0
   -5.6682    3.9391    0.0000 C   0  0  0  0  0  0  0  0  0  0  0  0
   -4.2009    4.2510    0.0000 C   0  0  0  0  0  0  0  0  0  0  0  0
   -3.7374    5.6776    0.0000 C   0  0  0  0  0  0  0  0  0  0  0  0
   -4.7411    6.7923    0.0000 C   0  0  0  0  0  0  0  0  0  0  0  0
   -4.2776    8.2189    0.0000 C   0  0  0  0  0  0  0  0  0  0  0  0
   -2.8104    8.5308    0.0000 C   0  0  0  0  0  0  0  0  0  0  0  0
   -2.3468    9.9574    0.0000 C   0  0  0  0  0  0  0  0  0  0  0  0
   -3.3505   11.0721    0.0000 C   0  0  0  0  0  0  0  0  0  0  0  0
   -4.8177   10.7602    0.0000 N   0  0  0  0  0  0  0  0  0  0  0  0
   -5.2813    9.3336    0.0000 C   0  0  0  0  0  0  0  0  0  0  0  0
   -6.2083    6.4805    0.0000 C   0  0  0  0  0  0  0  0  0  0  0  0
   -6.6718    5.0539    0.0000 C   0  0  0  0  0  0  0  0  0  0  0  0
   -0.7500    1.2990    0.0000 C   0  0  0  0  0  0  0  0  0  0  0  0
   -1.5000    2.5981    0.0000 O   0  0  0  0  0  0  0  0  0  0  0  0
    0.7500    1.2990    0.0000 N   0  0  0  0  0  0  0  0  0  0  0  0
  1  2  1  0
  2  3  2  0
  3  4  1  0
  4  5  2  0
  5  6  1  0
  6  7  2  0
  6  8  1  0
  8  9  1  0
  9 10  2  0
 10 11  1  0
 11 12  2  0
 12 13  1  0
 13 14  1  0
 14 15  2  0
 15 16  1  0
 16 17  2  0
 17 18  1  0
 18 19  2  0
 19 20  1  0
 20 21  2  0
 21 22  1  0
 22 23  2  0
 17 24  1  0
 24 25  2  0
  5 26  1  0
 26 27  2  0
 26 28  1  0
 28  2  1  0
 13  9  1  0
 25 14  1  0
 23 18  1  0
M  END
>  <Title>  (561) 
idAAVOgen7

$$$$

     RDKit          2D

 48 54  0  0  0  0  0  0  0  0999 V2000
    3.0000    0.0000    0.0000 C   0  0  0  0  0  0  0  0  0  0  0  0
    1.5000    0.0000    0.0000 C   0  0  0  0  0  0  0  0  0  0  0  0
    0.7500   -1.2990    0.0000 C   0  0  0  0  0  0  0  0  0  0  0  0
   -0.7500   -1.2990    0.0000 C   0  0  0  0  0  0  0  0  0  0  0  0
   -1.5000    0.0000    0.0000 C   0  0  0  0  0  0  0  0  0  0  0  0
   -3.0000    0.0000    0.0000 C   0  0  0  0  0  0  0  0  0  0  0  0
   -3.8817   -1.2135    0.0000 N   0  0  0  0  0  0  0  0  0  0  0  0
   -5.3083   -0.7500    0.0000 N   0  0  0  0  0  0  0  0  0  0  0  0
   -5.3083    0.7500    0.0000 N   0  0  0  0  0  0  0  0  0  0  0  0
   -3.8817    1.2135    0.0000 N   0  0  0  0  0  0  0  0  0  0  0  0
   -3.4182    2.6401    0.0000 C   0  0  0  0  0  0  0  0  0  0  0  0
   -1.9509    2.9520    0.0000 C   0  0  0  0  0  0  0  0  0  0  0  0
   -1.4874    4.3786    0.0000 C   0  0  0  0  0  0  0  0  0  0  0  0
   -2.4911    5.4933    0.0000 C   0  0  0  0  0  0  0  0  0  0  0  0
   -2.0276    6.9199    0.0000 C   0  0  0  0  0  0  0  0  0  0  0  0
   -0.5604    7.2317    0.0000 C   0  0  0  0  0  0  0  0  0  0  0  0
   -0.0968    8.6583    0.0000 C   0  0  0  0  0  0  0  0  0  0  0  0
   -1.1005    9.7730    0.0000 C   0  0  0  0  0  0  0  0  0  0  0  0
   -0.6370   11.1996    0.0000 C   0  0  0  0  0  0  0  0  0  0  0  0
   -1.6407   12.3143    0.0000 O   0  0  0  0  0  0  0  0  0  0  0  0
    0.8302   11.5115    0.0000 N   0  0  0  0  0  0  0  0  0  0  0  0
    1.2937   12.9381    0.0000 C   0  0  0  0  0  0  0  0  0  0  0  0
    2.7610   13.2499    0.0000 C   0  0  0  0  0  0  0  0  0  0  0  0
    3.2245   14.6765    0.0000 C   0  0  0  0  0  0  0  0  0  0  0  0
    2.2208   15.7912    0.0000 C   0  0  0  0  0  0  0  0  0  0  0  0
    0.7536   15.4794    0.0000 C   0  0  0  0  0  0  0  0  0  0  0  0
    0.2901   14.0528    0.0000 C   0  0  0  0  0  0  0  0  0  0  0  0
   -2.5677    9.4612    0.0000 C   0  0  0  0  0  0  0  0  0  0  0  0
   -3.0313    8.0346    0.0000 C   0  0  0  0  0  0  0  0  0  0  0  0
   -4.4985    7.7227    0.0000 C   0  0  0  0  0  0  0  0  0  0  0  0
   -5.5022    8.8374    0.0000 C   0  0  0  0  0  0  0  0  0  0  0  0
   -6.9694    8.5256    0.0000 C   0  0  0  0  0  0  0  0  0  0  0  0
   -7.4329    7.0990    0.0000 C   0  0  0  0  0  0  0  0  0  0  0  0
   -8.9002    6.7871    0.0000 C   0  0  0  0  0  0  0  0  0  0  0  0
   -9.3637    5.3605    0.0000 O   0  0  0  0  0  0  0  0  0  0  0  0
   -9.9039    7.9018    0.0000 N   0  0  0  0  0  0  0  0  0  0  0  0
  -11.3711    7.5900    0.0000 C   0  0  0  0  0  0  0  0  0  0  0  0
  -12.3748    8.7047    0.0000 C   0  0  0  0  0  0  0  0  0  0  0  0
  -13.8420    8.3928    0.0000 C   0  0  0  0  0  0  0  0  0  0  0  0
  -14.3055    6.9662    0.0000 C   0  0  0  0  0  0  0  0  0  0  0  0
  -13.3018    5.8515    0.0000 C   0  0  0  0  0  0  0  0  0  0  0  0
  -11.8346    6.1634    0.0000 C   0  0  0  0  0  0  0  0  0  0  0  0
   -6.4292    5.9843    0.0000 C   0  0  0  0  0  0  0  0  0  0  0  0
   -4.9620    6.2961    0.0000 C   0  0  0  0  0  0  0  0  0  0  0  0
   -3.9583    5.1814    0.0000 C   0  0  0  0  0  0  0  0  0  0  0  0
   -4.4218    3.7548    0.0000 C   0  0  0  0  0  0  0  0  0  0  0  0
   -0.7500    1.2990    0.0000 C   0  0  0  0  0  0  0  0  0  0  0  0
    0.7500    1.2990    0.0000 C   0  0  0  0  0  0  0  0  0  0  0  0
  1  2  1  0
  2  3  2  0
  3  4  1  0
  4  5  2  0
  5  6  1  0
  6  7  2  0
  7  8  1  0
  8  9  2  0
  9 10  1  0
 10 11  1  0
 11 12  2  0
 12 13  1  0
 13 14  2  0
 14 15  1  0
 15 16  2  0
 16 17  1  0
 17 18  2  0
 18 19  1  0
 19 20  2  0
 19 21  1  0
 21 22  1  0
 22 23  2  0
 23 24  1  0
 24 25  2  0
 25 26  1  0
 26 27  2  0
 18 28  1  0
 28 29  2  0
 29 30  1  0
 30 31  2  0
 31 32  1  0
 32 33  2  0
 33 34  1  0
 34 35  2  0
 34 36  1  0
 36 37  1  0
 37 38  2  0
 38 39  1  0
 39 40  2  0
 40 41  1  0
 41 42  2  0
 33 43  1  0
 43 44  2  0
 14 45  1  0
 45 46  2  0
  5 47  1  0
 47 48  2  0
 48  2  1  0
 10  6  1  0
 46 11  1  0
 29 15  1  0
 44 30  1  0
 27 22  1  0
 42 37  1  0
M  END
>  <Title>  (562) 
idAAVPgen7

$$$$

     RDKit          2D

 36 40  0  0  0  0  0  0  0  0999 V2000
    3.0000    1.5000    0.0000 C   0  0  0  0  0  0  0  0  0  0  0  0
    3.0000    0.0000    0.0000 C   0  0  0  0  0  0  0  0  0  0  0  0
    3.0000   -1.5000    0.0000 C   0  0  0  0  0  0  0  0  0  0  0  0
    4.5000    0.0000    0.0000 C   0  0  0  0  0  0  0  0  0  0  0  0
    1.5000    0.0000    0.0000 C   0  0  0  0  0  0  0  0  0  0  0  0
    0.7500    1.2990    0.0000 C   0  0  0  0  0  0  0  0  0  0  0  0
   -0.7500    1.2990    0.0000 C   0  0  0  0  0  0  0  0  0  0  0  0
   -1.5000    0.0000    0.0000 C   0  0  0  0  0  0  0  0  0  0  0  0
   -3.0000    0.0000    0.0000 C   0  0  0  0  0  0  0  0  0  0  0  0
   -3.8817   -1.2135    0.0000 N   0  0  0  0  0  0  0  0  0  0  0  0
   -5.3083   -0.7500    0.0000 N   0  0  0  0  0  0  0  0  0  0  0  0
   -5.3083    0.7500    0.0000 N   0  0  0  0  0  0  0  0  0  0  0  0
   -3.8817    1.2135    0.0000 N   0  0  0  0  0  0  0  0  0  0  0  0
   -3.4182    2.6401    0.0000 C   0  0  0  0  0  0  0  0  0  0  0  0
   -1.9509    2.9520    0.0000 C   0  0  0  0  0  0  0  0  0  0  0  0
   -1.4874    4.3786    0.0000 C   0  0  0  0  0  0  0  0  0  0  0  0
   -2.4911    5.4933    0.0000 C   0  0  0  0  0  0  0  0  0  0  0  0
   -2.0276    6.9199    0.0000 C   0  0  0  0  0  0  0  0  0  0  0  0
   -3.0313    8.0346    0.0000 O   0  0  0  0  0  0  0  0  0  0  0  0
   -0.5604    7.2317    0.0000 N   0  0  0  0  0  0  0  0  0  0  0  0
   -0.0968    8.6583    0.0000 C   0  0  0  0  0  0  0  0  0  0  0  0
   -0.9785    9.8718    0.0000 N   0  0  0  0  0  0  0  0  0  0  0  0
   -0.0968   11.0854    0.0000 N   0  0  0  0  0  0  0  0  0  0  0  0
    1.3298   10.6218    0.0000 N   0  0  0  0  0  0  0  0  0  0  0  0
    1.3298    9.1218    0.0000 N   0  0  0  0  0  0  0  0  0  0  0  0
    2.5433    8.2402    0.0000 C   0  0  0  0  0  0  0  0  0  0  0  0
    2.3865    6.7484    0.0000 C   0  0  0  0  0  0  0  0  0  0  0  0
    3.6000    5.8667    0.0000 C   0  0  0  0  0  0  0  0  0  0  0  0
    4.9703    6.4768    0.0000 C   0  0  0  0  0  0  0  0  0  0  0  0
    5.1271    7.9686    0.0000 C   0  0  0  0  0  0  0  0  0  0  0  0
    3.9136    8.8503    0.0000 C   0  0  0  0  0  0  0  0  0  0  0  0
   -3.9583    5.1814    0.0000 C   0  0  0  0  0  0  0  0  0  0  0  0
   -4.4218    3.7548    0.0000 C   0  0  0  0  0  0  0  0  0  0  0  0
   -0.7500   -1.2990    0.0000 C   0  0  0  0  0  0  0  0  0  0  0  0
   -1.5000   -2.5981    0.0000 O   0  0  0  0  0  0  0  0  0  0  0  0
    0.7500   -1.2990    0.0000 N   0  0  0  0  0  0  0  0  0  0  0  0
  1  2  1  0
  2  3  1  0
  2  4  1  0
  2  5  1  0
  5  6  2  0
  6  7  1  0
  7  8  2  0
  8  9  1  0
  9 10  2  0
 10 11  1  0
 11 12  2  0
 12 13  1  0
 13 14  1  0
 14 15  2  0
 15 16  1  0
 16 17  2  0
 17 18  1  0
 18 19  2  0
 18 20  1  0
 20 21  1  0
 21 22  2  0
 22 23  1  0
 23 24  2  0
 24 25  1  0
 25 26  1  0
 26 27  2  0
 27 28  1  0
 28 29  2  0
 29 30  1  0
 30 31  2  0
 17 32  1  0
 32 33  2  0
  8 34  1  0
 34 35  2  0
 34 36  1  0
 36  5  1  0
 13  9  1  0
 33 14  1  0
 25 21  1  0
 31 26  1  0
M  END
>  <Title>  (563) 
idAAVQgen7

$$$$

     RDKit          2D

 27 27  0  0  0  0  0  0  0  0999 V2000
    7.2460    0.0000    0.0000 C   0  0  0  0  0  0  0  0  0  0  0  0
    5.7460    0.0000    0.0000 C   0  0  0  0  0  0  0  0  0  0  0  0
    5.5502   -1.4872    0.0000 C   0  0  0  0  0  0  0  0  0  0  0  0
    4.9762   -2.8730    0.0000 C   0  0  0  0  0  0  0  0  0  0  0  0
    4.0630   -4.0630    0.0000 C   0  0  0  0  0  0  0  0  0  0  0  0
    2.8730   -4.9762    0.0000 C   0  0  0  0  0  0  0  0  0  0  0  0
    1.4872   -5.5502    0.0000 C   0  0  0  0  0  0  0  0  0  0  0  0
   -0.0000   -5.7460    0.0000 C   0  0  0  0  0  0  0  0  0  0  0  0
   -1.4872   -5.5502    0.0000 C   0  0  0  0  0  0  0  0  0  0  0  0
   -2.8730   -4.9762    0.0000 C   0  0  0  0  0  0  0  0  0  0  0  0
   -4.0630   -4.0630    0.0000 C   0  0  0  0  0  0  0  0  0  0  0  0
   -4.9762   -2.8730    0.0000 C   0  0  0  0  0  0  0  0  0  0  0  0
   -5.5502   -1.4872    0.0000 C   0  0  0  0  0  0  0  0  0  0  0  0
   -5.7460    0.0000    0.0000 C   0  0  0  0  0  0  0  0  0  0  0  0
   -5.5502    1.4872    0.0000 C   0  0  0  0  0  0  0  0  0  0  0  0
   -4.9762    2.8730    0.0000 C   0  0  0  0  0  0  0  0  0  0  0  0
   -4.0630    4.0630    0.0000 C   0  0  0  0  0  0  0  0  0  0  0  0
   -2.8730    4.9762    0.0000 C   0  0  0  0  0  0  0  0  0  0  0  0
   -1.4872    5.5502    0.0000 C   0  0  0  0  0  0  0  0  0  0  0  0
    0.0000    5.7460    0.0000 C   0  0  0  0  0  0  0  0  0  0  0  0
    1.4872    5.5502    0.0000 C   0  0  0  0  0  0  0  0  0  0  0  0
    1.8754    6.9991    0.0000 C   0  0  0  0  0  0  0  0  0  0  0  0
    2.8730    4.9762    0.0000 C   0  0  0  0  0  0  0  0  0  0  0  0
    3.6230    6.2752    0.0000 C   0  0  0  0  0  0  0  0  0  0  0  0
    4.0630    4.0630    0.0000 C   0  0  0  0  0  0  0  0  0  0  0  0
    4.9762    2.8730    0.0000 C   0  0  0  0  0  0  0  0  0  0  0  0
    5.5502    1.4872    0.0000 C   0  0  0  0  0  0  0  0  0  0  0  0
  1  2  1  0
  2  3  2  0
  3  4  1  0
  4  5  2  0
  5  6  1  0
  6  7  2  0
  7  8  1  0
  8  9  2  0
  9 10  1  0
 10 11  2  0
 11 12  1  0
 12 13  2  0
 13 14  1  0
 14 15  2  0
 15 16  1  0
 16 17  2  0
 17 18  1  0
 18 19  2  0
 19 20  1  0
 20 21  2  0
 21 22  1  0
 21 23  1  0
 23 24  1  0
 23 25  2  0
 25 26  1  0
 26 27  2  0
 27  2  1  0
M  END
>  <Title>  (564) 
idAAVRgen7

$$$$

     RDKit          2D

 22 24  0  0  0  0  0  0  0  0999 V2000
    3.0000    0.0000    0.0000 C   0  0  0  0  0  0  0  0  0  0  0  0
    1.5000    0.0000    0.0000 C   0  0  0  0  0  0  0  0  0  0  0  0
    0.7500   -1.2990    0.0000 C   0  0  0  0  0  0  0  0  0  0  0  0
   -0.7500   -1.2990    0.0000 C   0  0  0  0  0  0  0  0  0  0  0  0
   -1.5000    0.0000    0.0000 C   0  0  0  0  0  0  0  0  0  0  0  0
   -3.0000    0.0000    0.0000 C   0  0  0  0  0  0  0  0  0  0  0  0
   -3.8817   -1.2135    0.0000 N   0  0  0  0  0  0  0  0  0  0  0  0
   -5.3083   -0.7500    0.0000 N   0  0  0  0  0  0  0  0  0  0  0  0
   -5.3083    0.7500    0.0000 N   0  0  0  0  0  0  0  0  0  0  0  0
   -3.8817    1.2135    0.0000 N   0  0  0  0  0  0  0  0  0  0  0  0
   -3.4182    2.6401    0.0000 C   0  0  0  0  0  0  0  0  0  0  0  0
   -1.9509    2.9520    0.0000 C   0  0  0  0  0  0  0  0  0  0  0  0
   -1.4874    4.3786    0.0000 C   0  0  0  0  0  0  0  0  0  0  0  0
   -2.4911    5.4933    0.0000 C   0  0  0  0  0  0  0  0  0  0  0  0
   -2.0276    6.9199    0.0000 C   0  0  0  0  0  0  0  0  0  0  0  0
   -3.0313    8.0346    0.0000 O   0  0  0  0  0  0  0  0  0  0  0  0
   -0.5604    7.2317    0.0000 N   0  0  0  0  0  0  0  0  0  0  0  0
   -0.0968    8.6583    0.0000 O   0  0  0  0  0  0  0  0  0  0  0  0
   -3.9583    5.1814    0.0000 C   0  0  0  0  0  0  0  0  0  0  0  0
   -4.4218    3.7548    0.0000 C   0  0  0  0  0  0  0  0  0  0  0  0
   -0.7500    1.2990    0.0000 C   0  0  0  0  0  0  0  0  0  0  0  0
    0.7500    1.2990    0.0000 C   0  0  0  0  0  0  0  0  0  0  0  0
  1  2  1  0
  2  3  2  0
  3  4  1  0
  4  5  2  0
  5  6  1  0
  6  7  2  0
  7  8  1  0
  8  9  2  0
  9 10  1  0
 10 11  1  0
 11 12  2  0
 12 13  1  0
 13 14  2  0
 14 15  1  0
 15 16  2  0
 15 17  1  0
 17 18  1  0
 14 19  1  0
 19 20  1  0
  5 21  1  0
 21 22  2  0
 22  2  1  0
 10  6  1  0
 20 11  1  0
M  END
>  <Title>  (565) 
idAAVSgen7

$$$$

     RDKit          2D

 18 20  0  0  0  0  0  0  0  0999 V2000
    2.7516    6.1053    0.0000 O   0  0  0  0  0  0  0  0  0  0  0  0
    1.8836    4.8820    0.0000 C   0  0  0  0  0  0  0  0  0  0  0  0
    2.6816    3.6119    0.0000 C   0  0  0  0  0  0  0  0  0  0  0  0
    2.3478    2.1495    0.0000 C   0  0  0  0  0  0  0  0  0  0  0  0
    1.0777    1.3515    0.0000 C   0  0  0  0  0  0  0  0  0  0  0  0
    1.7286    0.0000    0.0000 C   0  0  0  0  0  0  0  0  0  0  0  0
    1.0777   -1.3515    0.0000 C   0  0  0  0  0  0  0  0  0  0  0  0
   -0.3846   -1.6852    0.0000 C   0  0  0  0  0  0  0  0  0  0  0  0
   -1.5574   -0.7500    0.0000 C   0  0  0  0  0  0  0  0  0  0  0  0
   -1.5574    0.7500    0.0000 C   0  0  0  0  0  0  0  0  0  0  0  0
   -0.3846    1.6852    0.0000 C   0  0  0  0  0  0  0  0  0  0  0  0
   -1.1827    2.9553    0.0000 C   0  0  0  0  0  0  0  0  0  0  0  0
   -2.6161    2.5132    0.0000 C   0  0  0  0  0  0  0  0  0  0  0  0
   -3.7156    3.5334    0.0000 C   0  0  0  0  0  0  0  0  0  0  0  0
   -3.3818    4.9958    0.0000 C   0  0  0  0  0  0  0  0  0  0  0  0
   -1.9485    5.4380    0.0000 C   0  0  0  0  0  0  0  0  0  0  0  0
   -0.8489    4.4177    0.0000 C   0  0  0  0  0  0  0  0  0  0  0  0
    0.4212    5.2158    0.0000 N   0  0  0  0  0  0  0  0  0  0  0  0
  1  2  1  0
  2  3  2  0
  3  4  1  0
  4  5  2  0
  5  6  1  0
  6  7  2  0
  7  8  1  0
  8  9  2  0
  9 10  1  0
 10 11  2  0
 11 12  1  0
 12 13  2  0
 13 14  1  0
 14 15  2  0
 15 16  1  0
 16 17  2  0
 17 18  1  0
 18  2  1  0
 11  5  1  0
 17 12  1  0
M  END
>  <Title>  (566) 
idAAVTgen7

$$$$

     RDKit          2D

 37 41  0  0  0  0  0  0  0  0999 V2000
    3.4598   -0.0000    0.0000 C   0  0  0  0  0  0  0  0  0  0  0  0
    1.9598    0.0000    0.0000 C   0  0  0  0  0  0  0  0  0  0  0  0
    1.3858   -1.3858    0.0000 C   0  0  0  0  0  0  0  0  0  0  0  0
   -0.0000   -1.9598    0.0000 C   0  0  0  0  0  0  0  0  0  0  0  0
   -1.3858   -1.3858    0.0000 C   0  0  0  0  0  0  0  0  0  0  0  0
   -2.4465   -2.4465    0.0000 C   0  0  0  0  0  0  0  0  0  0  0  0
   -1.9598    0.0000    0.0000 C   0  0  0  0  0  0  0  0  0  0  0  0
   -3.4598    0.0000    0.0000 N   0  0  0  0  0  0  0  0  0  0  0  0
   -4.3415   -1.2135    0.0000 N   0  0  0  0  0  0  0  0  0  0  0  0
   -5.7681   -0.7500    0.0000 N   0  0  0  0  0  0  0  0  0  0  0  0
   -5.7681    0.7500    0.0000 N   0  0  0  0  0  0  0  0  0  0  0  0
   -4.3415    1.2135    0.0000 C   0  0  0  0  0  0  0  0  0  0  0  0
   -3.8780    2.6401    0.0000 N   0  0  0  0  0  0  0  0  0  0  0  0
   -4.8817    3.7548    0.0000 C   0  0  0  0  0  0  0  0  0  0  0  0
   -6.3489    3.4430    0.0000 O   0  0  0  0  0  0  0  0  0  0  0  0
   -4.4182    5.1814    0.0000 C   0  0  0  0  0  0  0  0  0  0  0  0
   -2.9509    5.4933    0.0000 C   0  0  0  0  0  0  0  0  0  0  0  0
   -2.4874    6.9199    0.0000 C   0  0  0  0  0  0  0  0  0  0  0  0
   -3.4911    8.0346    0.0000 C   0  0  0  0  0  0  0  0  0  0  0  0
   -3.0276    9.4612    0.0000 C   0  0  0  0  0  0  0  0  0  0  0  0
   -4.9583    7.7227    0.0000 C   0  0  0  0  0  0  0  0  0  0  0  0
   -5.4219    6.2961    0.0000 C   0  0  0  0  0  0  0  0  0  0  0  0
   -1.3858    1.3858    0.0000 C   0  0  0  0  0  0  0  0  0  0  0  0
    0.0000    1.9598    0.0000 C   0  0  0  0  0  0  0  0  0  0  0  0
    1.3858    1.3858    0.0000 C   0  0  0  0  0  0  0  0  0  0  0  0
    2.4465    2.4465    0.0000 C   0  0  0  0  0  0  0  0  0  0  0  0
    2.2118    3.9280    0.0000 C   0  0  0  0  0  0  0  0  0  0  0  0
    3.5483    4.6090    0.0000 C   0  0  0  0  0  0  0  0  0  0  0  0
    4.6090    3.5483    0.0000 C   0  0  0  0  0  0  0  0  0  0  0  0
    6.0905    3.7830    0.0000 C   0  0  0  0  0  0  0  0  0  0  0  0
    7.0345    2.6173    0.0000 C   0  0  0  0  0  0  0  0  0  0  0  0
    8.5160    2.8519    0.0000 C   0  0  0  0  0  0  0  0  0  0  0  0
    9.0536    4.2523    0.0000 C   0  0  0  0  0  0  0  0  0  0  0  0
    8.1096    5.4180    0.0000 C   0  0  0  0  0  0  0  0  0  0  0  0
    6.6281    5.1834    0.0000 C   0  0  0  0  0  0  0  0  0  0  0  0
    3.9280    2.2118    0.0000 C   0  0  0  0  0  0  0  0  0  0  0  0
    4.6090    0.8753    0.0000 O   0  0  0  0  0  0  0  0  0  0  0  0
  1  2  1  0
  2  3  2  0
  3  4  1  0
  4  5  2  0
  5  6  1  0
  5  7  1  0
  7  8  1  0
  8  9  1  0
  9 10  2  0
 10 11  1  0
 11 12  2  0
 12 13  1  0
 13 14  1  0
 14 15  2  0
 14 16  1  0
 16 17  2  0
 17 18  1  0
 18 19  2  0
 19 20  1  0
 19 21  1  0
 21 22  2  0
  7 23  2  0
 23 24  1  0
 24 25  2  0
 25 26  1  0
 26 27  2  0
 27 28  1  0
 28 29  2  0
 29 30  1  0
 30 31  2  0
 31 32  1  0
 32 33  2  0
 33 34  1  0
 34 35  2  0
 29 36  1  0
 36 37  2  0
 25  2  1  0
 36 26  1  0
 12  8  1  0
 22 16  1  0
 35 30  1  0
M  END
>  <Title>  (567) 
idAAVUgen7

$$$$

     RDKit          2D

 11 11  0  0  0  0  0  0  0  0999 V2000
    3.9271    0.0000    0.0000 O   0  0  0  0  0  0  0  0  0  0  0  0
    2.4271    0.0000    0.0000 C   0  0  0  0  0  0  0  0  0  0  0  0
    1.9635   -1.4266    0.0000 C   0  0  0  0  0  0  0  0  0  0  0  0
    0.7500   -2.3083    0.0000 C   0  0  0  0  0  0  0  0  0  0  0  0
   -0.7500   -2.3083    0.0000 C   0  0  0  0  0  0  0  0  0  0  0  0
   -1.9635   -1.4266    0.0000 C   0  0  0  0  0  0  0  0  0  0  0  0
   -2.4271    0.0000    0.0000 C   0  0  0  0  0  0  0  0  0  0  0  0
   -1.9635    1.4266    0.0000 C   0  0  0  0  0  0  0  0  0  0  0  0
   -0.7500    2.3083    0.0000 C   0  0  0  0  0  0  0  0  0  0  0  0
    0.7500    2.3083    0.0000 C   0  0  0  0  0  0  0  0  0  0  0  0
    1.9635    1.4266    0.0000 C   0  0  0  0  0  0  0  0  0  0  0  0
  1  2  1  0
  2  3  2  0
  3  4  1  0
  4  5  2  0
  5  6  1  0
  6  7  2  0
  7  8  1  0
  8  9  2  0
  9 10  1  0
 10 11  2  0
 11  2  1  0
M  END
>  <Title>  (568) 
idAAVVgen7

$$$$

     RDKit          2D

 34 37  0  0  0  0  0  0  0  0999 V2000
    4.2098   -1.2990    0.0000 C   0  0  0  0  0  0  0  0  0  0  0  0
    3.4598   -0.0000    0.0000 O   0  0  0  0  0  0  0  0  0  0  0  0
    1.9598    0.0000    0.0000 C   0  0  0  0  0  0  0  0  0  0  0  0
    1.3858   -1.3858    0.0000 C   0  0  0  0  0  0  0  0  0  0  0  0
   -0.0000   -1.9598    0.0000 C   0  0  0  0  0  0  0  0  0  0  0  0
   -1.3858   -1.3858    0.0000 C   0  0  0  0  0  0  0  0  0  0  0  0
   -1.9598    0.0000    0.0000 C   0  0  0  0  0  0  0  0  0  0  0  0
   -1.3858    1.3858    0.0000 C   0  0  0  0  0  0  0  0  0  0  0  0
   -2.4465    2.4465    0.0000 C   0  0  0  0  0  0  0  0  0  0  0  0
   -3.8954    2.0583    0.0000 O   0  0  0  0  0  0  0  0  0  0  0  0
   -2.0583    3.8954    0.0000 N   0  0  0  0  0  0  0  0  0  0  0  0
   -3.1189    4.9560    0.0000 C   0  0  0  0  0  0  0  0  0  0  0  0
   -4.6004    4.7214    0.0000 N   0  0  0  0  0  0  0  0  0  0  0  0
   -5.2814    6.0579    0.0000 N   0  0  0  0  0  0  0  0  0  0  0  0
   -4.2208    7.1185    0.0000 N   0  0  0  0  0  0  0  0  0  0  0  0
   -2.8843    6.4376    0.0000 N   0  0  0  0  0  0  0  0  0  0  0  0
   -1.5477    7.1185    0.0000 C   0  0  0  0  0  0  0  0  0  0  0  0
   -0.2897    6.3016    0.0000 C   0  0  0  0  0  0  0  0  0  0  0  0
    1.0468    6.9826    0.0000 C   0  0  0  0  0  0  0  0  0  0  0  0
    1.1253    8.4805    0.0000 C   0  0  0  0  0  0  0  0  0  0  0  0
    2.4618    9.1615    0.0000 C   0  0  0  0  0  0  0  0  0  0  0  0
    2.5403   10.6594    0.0000 O   0  0  0  0  0  0  0  0  0  0  0  0
    3.7198    8.3445    0.0000 N   0  0  0  0  0  0  0  0  0  0  0  0
    5.0563    9.0255    0.0000 C   0  0  0  0  0  0  0  0  0  0  0  0
    6.3143    8.2086    0.0000 C   0  0  0  0  0  0  0  0  0  0  0  0
    7.6508    8.8896    0.0000 C   0  0  0  0  0  0  0  0  0  0  0  0
    7.7293   10.3875    0.0000 C   0  0  0  0  0  0  0  0  0  0  0  0
    6.4713   11.2045    0.0000 C   0  0  0  0  0  0  0  0  0  0  0  0
    5.1348   10.5235    0.0000 C   0  0  0  0  0  0  0  0  0  0  0  0
   -0.1327    9.2975    0.0000 C   0  0  0  0  0  0  0  0  0  0  0  0
   -1.4692    8.6165    0.0000 C   0  0  0  0  0  0  0  0  0  0  0  0
    0.0000    1.9598    0.0000 C   0  0  0  0  0  0  0  0  0  0  0  0
    0.0000    3.4598    0.0000 O   0  0  0  0  0  0  0  0  0  0  0  0
    1.3858    1.3858    0.0000 N   0  0  0  0  0  0  0  0  0  0  0  0
  1  2  1  0
  2  3  1  0
  3  4  2  0
  4  5  1  0
  5  6  2  0
  6  7  1  0
  7  8  2  0
  8  9  1  0
  9 10  2  0
  9 11  1  0
 11 12  1  0
 12 13  2  0
 13 14  1  0
 14 15  2  0
 15 16  1  0
 16 17  1  0
 17 18  2  0
 18 19  1  0
 19 20  2  0
 20 21  1  0
 21 22  2  0
 21 23  1  0
 23 24  1  0
 24 25  2  0
 25 26  1  0
 26 27  2  0
 27 28  1  0
 28 29  2  0
 20 30  1  0
 30 31  2  0
  8 32  1  0
 32 33  2  0
 32 34  1  0
 34  3  1  0
 16 12  1  0
 31 17  1  0
 29 24  1  0
M  END
>  <Title>  (569) 
idAAVWgen7

$$$$

     RDKit          2D

 35 40  0  0  0  0  0  0  0  0999 V2000
  -10.1624    4.2767    0.0000 C   0  0  0  0  0  0  0  0  0  0  0  0
   -8.9488    3.3950    0.0000 C   0  0  0  0  0  0  0  0  0  0  0  0
   -9.1056    1.9033    0.0000 C   0  0  0  0  0  0  0  0  0  0  0  0
   -7.8921    1.0216    0.0000 C   0  0  0  0  0  0  0  0  0  0  0  0
   -6.5218    1.6317    0.0000 C   0  0  0  0  0  0  0  0  0  0  0  0
   -5.3083    0.7500    0.0000 C   0  0  0  0  0  0  0  0  0  0  0  0
   -5.3083   -0.7500    0.0000 N   0  0  0  0  0  0  0  0  0  0  0  0
   -3.8817   -1.2135    0.0000 N   0  0  0  0  0  0  0  0  0  0  0  0
   -3.0000    0.0000    0.0000 N   0  0  0  0  0  0  0  0  0  0  0  0
   -3.8817    1.2135    0.0000 N   0  0  0  0  0  0  0  0  0  0  0  0
   -3.4182    2.6401    0.0000 C   0  0  0  0  0  0  0  0  0  0  0  0
   -4.2998    3.8536    0.0000 C   0  0  0  0  0  0  0  0  0  0  0  0
   -3.4182    5.0672    0.0000 C   0  0  0  0  0  0  0  0  0  0  0  0
   -1.9916    4.6036    0.0000 C   0  0  0  0  0  0  0  0  0  0  0  0
   -0.7780    5.4853    0.0000 C   0  0  0  0  0  0  0  0  0  0  0  0
   -0.7780    6.9853    0.0000 N   0  0  0  0  0  0  0  0  0  0  0  0
    0.6485    7.4488    0.0000 N   0  0  0  0  0  0  0  0  0  0  0  0
    1.5302    6.2353    0.0000 N   0  0  0  0  0  0  0  0  0  0  0  0
    0.6485    5.0218    0.0000 N   0  0  0  0  0  0  0  0  0  0  0  0
    1.1121    3.5952    0.0000 C   0  0  0  0  0  0  0  0  0  0  0  0
    0.1084    2.4805    0.0000 C   0  0  0  0  0  0  0  0  0  0  0  0
    0.5719    1.0539    0.0000 C   0  0  0  0  0  0  0  0  0  0  0  0
    2.0391    0.7420    0.0000 C   0  0  0  0  0  0  0  0  0  0  0  0
    2.5026   -0.6846    0.0000 C   0  0  0  0  0  0  0  0  0  0  0  0
    1.4989   -1.7993    0.0000 C   0  0  0  0  0  0  0  0  0  0  0  0
    1.9625   -3.2259    0.0000 C   0  0  0  0  0  0  0  0  0  0  0  0
    3.4297   -3.5377    0.0000 C   0  0  0  0  0  0  0  0  0  0  0  0
    4.4334   -2.4230    0.0000 C   0  0  0  0  0  0  0  0  0  0  0  0
    3.9699   -0.9964    0.0000 C   0  0  0  0  0  0  0  0  0  0  0  0
    3.0428    1.8568    0.0000 C   0  0  0  0  0  0  0  0  0  0  0  0
    2.5793    3.2833    0.0000 C   0  0  0  0  0  0  0  0  0  0  0  0
   -1.9916    3.1036    0.0000 C   0  0  0  0  0  0  0  0  0  0  0  0
   -0.7780    2.2220    0.0000 O   0  0  0  0  0  0  0  0  0  0  0  0
   -6.3650    3.1235    0.0000 N   0  0  0  0  0  0  0  0  0  0  0  0
   -7.5785    4.0051    0.0000 C   0  0  0  0  0  0  0  0  0  0  0  0
  1  2  1  0
  2  3  2  0
  3  4  1  0
  4  5  2  0
  5  6  1  0
  6  7  2  0
  7  8  1  0
  8  9  2  0
  9 10  1  0
 10 11  1  0
 11 12  2  0
 12 13  1  0
 13 14  2  0
 14 15  1  0
 15 16  2  0
 16 17  1  0
 17 18  2  0
 18 19  1  0
 19 20  1  0
 20 21  2  0
 21 22  1  0
 22 23  2  0
 23 24  1  0
 24 25  2  0
 25 26  1  0
 26 27  2  0
 27 28  1  0
 28 29  2  0
 23 30  1  0
 30 31  2  0
 14 32  1  0
 32 33  2  0
  5 34  1  0
 34 35  1  0
 35  2  1  0
 10  6  1  0
 32 11  1  0
 19 15  1  0
 31 20  1  0
 29 24  1  0
M  END
>  <Title>  (570) 
idAAVXgen7

$$$$

     RDKit          2D

 48 55  0  0  0  0  0  0  0  0999 V2000
    3.0000    0.0000    0.0000 C   0  0  0  0  0  0  0  0  0  0  0  0
    1.5000    0.0000    0.0000 C   0  0  0  0  0  0  0  0  0  0  0  0
    0.7500   -1.2990    0.0000 C   0  0  0  0  0  0  0  0  0  0  0  0
   -0.7500   -1.2990    0.0000 C   0  0  0  0  0  0  0  0  0  0  0  0
   -1.5000    0.0000    0.0000 C   0  0  0  0  0  0  0  0  0  0  0  0
   -3.0000    0.0000    0.0000 N   0  0  0  0  0  0  0  0  0  0  0  0
   -3.7500    1.2990    0.0000 N   0  0  0  0  0  0  0  0  0  0  0  0
   -5.2500    1.2990    0.0000 N   0  0  0  0  0  0  0  0  0  0  0  0
   -6.0000    0.0000    0.0000 N   0  0  0  0  0  0  0  0  0  0  0  0
   -5.2500   -1.2990    0.0000 N   0  0  0  0  0  0  0  0  0  0  0  0
   -3.7500   -1.2990    0.0000 N   0  0  0  0  0  0  0  0  0  0  0  0
   -3.0000   -2.5981    0.0000 C   0  0  0  0  0  0  0  0  0  0  0  0
   -3.7500   -3.8971    0.0000 C   0  0  0  0  0  0  0  0  0  0  0  0
   -3.0000   -5.1962    0.0000 C   0  0  0  0  0  0  0  0  0  0  0  0
   -1.5000   -5.1962    0.0000 C   0  0  0  0  0  0  0  0  0  0  0  0
   -0.7500   -6.4952    0.0000 C   0  0  0  0  0  0  0  0  0  0  0  0
    0.7418   -6.6520    0.0000 N   0  0  0  0  0  0  0  0  0  0  0  0
    1.0537   -8.1192    0.0000 N   0  0  0  0  0  0  0  0  0  0  0  0
   -0.2454   -8.8692    0.0000 N   0  0  0  0  0  0  0  0  0  0  0  0
   -1.3601   -7.8655    0.0000 N   0  0  0  0  0  0  0  0  0  0  0  0
   -2.8273   -8.1774    0.0000 C   0  0  0  0  0  0  0  0  0  0  0  0
   -3.8310   -7.0627    0.0000 C   0  0  0  0  0  0  0  0  0  0  0  0
   -5.2982   -7.3745    0.0000 C   0  0  0  0  0  0  0  0  0  0  0  0
   -5.7618   -8.8011    0.0000 C   0  0  0  0  0  0  0  0  0  0  0  0
   -7.2290   -9.1130    0.0000 C   0  0  0  0  0  0  0  0  0  0  0  0
   -8.2327   -7.9983    0.0000 C   0  0  0  0  0  0  0  0  0  0  0  0
   -9.6999   -8.3101    0.0000 N   0  0  0  0  0  0  0  0  0  0  0  0
  -10.1634   -9.7367    0.0000 N   0  0  0  0  0  0  0  0  0  0  0  0
   -9.1597  -10.8514    0.0000 N   0  0  0  0  0  0  0  0  0  0  0  0
   -7.6925  -10.5396    0.0000 N   0  0  0  0  0  0  0  0  0  0  0  0
   -4.7581   -9.9158    0.0000 C   0  0  0  0  0  0  0  0  0  0  0  0
   -3.2909   -9.6040    0.0000 C   0  0  0  0  0  0  0  0  0  0  0  0
   -2.2872  -10.7187    0.0000 N   0  0  0  0  0  0  0  0  0  0  0  0
   -0.8199  -10.4068    0.0000 N   0  0  0  0  0  0  0  0  0  0  0  0
    0.1838  -11.5215    0.0000 N   0  0  0  0  0  0  0  0  0  0  0  0
   -0.2798  -12.9481    0.0000 N   0  0  0  0  0  0  0  0  0  0  0  0
   -1.7470  -13.2600    0.0000 N   0  0  0  0  0  0  0  0  0  0  0  0
   -2.7507  -12.1453    0.0000 N   0  0  0  0  0  0  0  0  0  0  0  0
   -4.2179  -12.4571    0.0000 C   0  0  0  0  0  0  0  0  0  0  0  0
   -4.6814  -13.8837    0.0000 C   0  0  0  0  0  0  0  0  0  0  0  0
   -6.1486  -14.1956    0.0000 C   0  0  0  0  0  0  0  0  0  0  0  0
   -7.1523  -13.0809    0.0000 C   0  0  0  0  0  0  0  0  0  0  0  0
   -6.6888  -11.6543    0.0000 C   0  0  0  0  0  0  0  0  0  0  0  0
   -5.2216  -11.3424    0.0000 C   0  0  0  0  0  0  0  0  0  0  0  0
   -0.7500   -3.8971    0.0000 C   0  0  0  0  0  0  0  0  0  0  0  0
   -1.5000   -2.5981    0.0000 C   0  0  0  0  0  0  0  0  0  0  0  0
   -0.7500    1.2990    0.0000 C   0  0  0  0  0  0  0  0  0  0  0  0
    0.7500    1.2990    0.0000 C   0  0  0  0  0  0  0  0  0  0  0  0
  1  2  1  0
  2  3  2  0
  3  4  1  0
  4  5  2  0
  5  6  1  0
  6  7  1  0
  7  8  2  0
  8  9  1  0
  9 10  2  0
 10 11  1  0
 11 12  1  0
 12 13  2  0
 13 14  1  0
 14 15  2  0
 15 16  1  0
 16 17  2  0
 17 18  1  0
 18 19  2  0
 19 20  1  0
 20 21  1  0
 21 22  2  0
 22 23  1  0
 23 24  2  0
 24 25  1  0
 25 26  2  0
 26 27  1  0
 27 28  2  0
 28 29  1  0
 29 30  2  0
 24 31  1  0
 31 32  2  0
 32 33  1  0
 33 34  1  0
 34 35  2  0
 35 36  1  0
 36 37  2  0
 37 38  1  0
 38 39  1  0
 39 40  2  0
 40 41  1  0
 41 42  2  0
 42 43  1  0
 43 44  2  0
 15 45  1  0
 45 46  2  0
  5 47  1  0
 47 48  2  0
 48  2  1  0
 11  6  1  0
 46 12  1  0
 20 16  1  0
 32 21  1  0
 38 33  1  0
 44 39  1  0
 30 25  1  0
M  END
>  <Title>  (571) 
idAAVYgen7

$$$$

     RDKit          2D

 36 40  0  0  0  0  0  0  0  0999 V2000
    3.0000    0.0000    0.0000 C   0  0  0  0  0  0  0  0  0  0  0  0
    1.5000    0.0000    0.0000 C   0  0  0  0  0  0  0  0  0  0  0  0
    0.7500   -1.2990    0.0000 C   0  0  0  0  0  0  0  0  0  0  0  0
   -0.7500   -1.2990    0.0000 C   0  0  0  0  0  0  0  0  0  0  0  0
   -1.5000    0.0000    0.0000 C   0  0  0  0  0  0  0  0  0  0  0  0
   -3.0000    0.0000    0.0000 C   0  0  0  0  0  0  0  0  0  0  0  0
   -3.7500   -1.2990    0.0000 O   0  0  0  0  0  0  0  0  0  0  0  0
   -3.7500    1.2990    0.0000 N   0  0  0  0  0  0  0  0  0  0  0  0
   -5.2500    1.2990    0.0000 C   0  0  0  0  0  0  0  0  0  0  0  0
   -6.1317    0.0855    0.0000 N   0  0  0  0  0  0  0  0  0  0  0  0
   -7.5583    0.5490    0.0000 N   0  0  0  0  0  0  0  0  0  0  0  0
   -7.5583    2.0490    0.0000 N   0  0  0  0  0  0  0  0  0  0  0  0
   -6.1317    2.5126    0.0000 N   0  0  0  0  0  0  0  0  0  0  0  0
   -5.6682    3.9391    0.0000 C   0  0  0  0  0  0  0  0  0  0  0  0
   -6.5498    5.1527    0.0000 C   0  0  0  0  0  0  0  0  0  0  0  0
   -5.6682    6.3662    0.0000 C   0  0  0  0  0  0  0  0  0  0  0  0
   -4.2416    5.9027    0.0000 C   0  0  0  0  0  0  0  0  0  0  0  0
   -3.0280    6.7844    0.0000 C   0  0  0  0  0  0  0  0  0  0  0  0
   -3.1848    8.2761    0.0000 O   0  0  0  0  0  0  0  0  0  0  0  0
   -1.6577    6.1742    0.0000 N   0  0  0  0  0  0  0  0  0  0  0  0
   -0.4442    7.0559    0.0000 C   0  0  0  0  0  0  0  0  0  0  0  0
   -0.4442    8.5559    0.0000 N   0  0  0  0  0  0  0  0  0  0  0  0
    0.9824    9.0195    0.0000 N   0  0  0  0  0  0  0  0  0  0  0  0
    1.8641    7.8059    0.0000 N   0  0  0  0  0  0  0  0  0  0  0  0
    0.9824    6.5924    0.0000 N   0  0  0  0  0  0  0  0  0  0  0  0
    1.4459    5.1658    0.0000 C   0  0  0  0  0  0  0  0  0  0  0  0
    0.4422    4.0511    0.0000 C   0  0  0  0  0  0  0  0  0  0  0  0
    0.9057    2.6245    0.0000 C   0  0  0  0  0  0  0  0  0  0  0  0
    2.3730    2.3126    0.0000 C   0  0  0  0  0  0  0  0  0  0  0  0
    3.3767    3.4274    0.0000 C   0  0  0  0  0  0  0  0  0  0  0  0
    2.9131    4.8539    0.0000 C   0  0  0  0  0  0  0  0  0  0  0  0
   -4.2416    4.4027    0.0000 C   0  0  0  0  0  0  0  0  0  0  0  0
   -3.0280    3.5210    0.0000 O   0  0  0  0  0  0  0  0  0  0  0  0
   -0.7500    1.2990    0.0000 C   0  0  0  0  0  0  0  0  0  0  0  0
   -1.5000    2.5981    0.0000 O   0  0  0  0  0  0  0  0  0  0  0  0
    0.7500    1.2990    0.0000 N   0  0  0  0  0  0  0  0  0  0  0  0
  1  2  1  0
  2  3  2  0
  3  4  1  0
  4  5  2  0
  5  6  1  0
  6  7  2  0
  6  8  1  0
  8  9  1  0
  9 10  2  0
 10 11  1  0
 11 12  2  0
 12 13  1  0
 13 14  1  0
 14 15  2  0
 15 16  1  0
 16 17  2  0
 17 18  1  0
 18 19  2  0
 18 20  1  0
 20 21  1  0
 21 22  2  0
 22 23  1  0
 23 24  2  0
 24 25  1  0
 25 26  1  0
 26 27  2  0
 27 28  1  0
 28 29  2  0
 29 30  1  0
 30 31  2  0
 17 32  1  0
 32 33  2  0
  5 34  1  0
 34 35  2  0
 34 36  1  0
 36  2  1  0
 13  9  1  0
 32 14  1  0
 25 21  1  0
 31 26  1  0
M  END
>  <Title>  (572) 
idAAVZgen7

$$$$

     RDKit          2D

 45 49  0  0  0  0  0  0  0  0999 V2000
    6.0000   -2.5981    0.0000 C   0  0  0  0  0  0  0  0  0  0  0  0
    5.2500   -1.2990    0.0000 C   0  0  0  0  0  0  0  0  0  0  0  0
    6.0000    0.0000    0.0000 O   0  0  0  0  0  0  0  0  0  0  0  0
    3.7500   -1.2990    0.0000 N   0  0  0  0  0  0  0  0  0  0  0  0
    3.0000    0.0000    0.0000 C   0  0  0  0  0  0  0  0  0  0  0  0
    3.7500    1.2990    0.0000 O   0  0  0  0  0  0  0  0  0  0  0  0
    1.5000    0.0000    0.0000 C   0  0  0  0  0  0  0  0  0  0  0  0
    0.7500   -1.2990    0.0000 C   0  0  0  0  0  0  0  0  0  0  0  0
   -0.7500   -1.2990    0.0000 C   0  0  0  0  0  0  0  0  0  0  0  0
   -1.5000    0.0000    0.0000 C   0  0  0  0  0  0  0  0  0  0  0  0
   -3.0000    0.0000    0.0000 C   0  0  0  0  0  0  0  0  0  0  0  0
   -3.7500   -1.2990    0.0000 O   0  0  0  0  0  0  0  0  0  0  0  0
   -3.7500    1.2990    0.0000 N   0  0  0  0  0  0  0  0  0  0  0  0
   -5.2500    1.2990    0.0000 C   0  0  0  0  0  0  0  0  0  0  0  0
   -6.1317    0.0855    0.0000 N   0  0  0  0  0  0  0  0  0  0  0  0
   -7.5583    0.5490    0.0000 N   0  0  0  0  0  0  0  0  0  0  0  0
   -7.5583    2.0490    0.0000 N   0  0  0  0  0  0  0  0  0  0  0  0
   -6.1317    2.5126    0.0000 N   0  0  0  0  0  0  0  0  0  0  0  0
   -5.6682    3.9391    0.0000 C   0  0  0  0  0  0  0  0  0  0  0  0
   -4.2009    4.2510    0.0000 C   0  0  0  0  0  0  0  0  0  0  0  0
   -3.7374    5.6776    0.0000 C   0  0  0  0  0  0  0  0  0  0  0  0
   -4.7411    6.7923    0.0000 C   0  0  0  0  0  0  0  0  0  0  0  0
   -4.2776    8.2189    0.0000 C   0  0  0  0  0  0  0  0  0  0  0  0
   -2.8104    8.5308    0.0000 C   0  0  0  0  0  0  0  0  0  0  0  0
   -2.3468    9.9574    0.0000 C   0  0  0  0  0  0  0  0  0  0  0  0
   -3.3505   11.0721    0.0000 C   0  0  0  0  0  0  0  0  0  0  0  0
   -2.8870   12.4987    0.0000 C   0  0  0  0  0  0  0  0  0  0  0  0
   -3.8907   13.6134    0.0000 O   0  0  0  0  0  0  0  0  0  0  0  0
   -1.4198   12.8105    0.0000 N   0  0  0  0  0  0  0  0  0  0  0  0
   -0.9563   14.2371    0.0000 O   0  0  0  0  0  0  0  0  0  0  0  0
   -4.8177   10.7602    0.0000 C   0  0  0  0  0  0  0  0  0  0  0  0
   -5.2813    9.3336    0.0000 C   0  0  0  0  0  0  0  0  0  0  0  0
   -6.2083    6.4805    0.0000 C   0  0  0  0  0  0  0  0  0  0  0  0
   -6.6718    5.0539    0.0000 C   0  0  0  0  0  0  0  0  0  0  0  0
   -8.1391    4.7420    0.0000 C   0  0  0  0  0  0  0  0  0  0  0  0
   -9.1428    5.8567    0.0000 C   0  0  0  0  0  0  0  0  0  0  0  0
  -10.6100    5.5448    0.0000 C   0  0  0  0  0  0  0  0  0  0  0  0
  -11.0735    4.1183    0.0000 C   0  0  0  0  0  0  0  0  0  0  0  0
  -12.5407    3.8064    0.0000 C   0  0  0  0  0  0  0  0  0  0  0  0
  -13.5444    4.9211    0.0000 O   0  0  0  0  0  0  0  0  0  0  0  0
  -10.0698    3.0035    0.0000 C   0  0  0  0  0  0  0  0  0  0  0  0
  -10.5333    1.5770    0.0000 C   0  0  0  0  0  0  0  0  0  0  0  0
   -8.6026    3.3154    0.0000 C   0  0  0  0  0  0  0  0  0  0  0  0
   -0.7500    1.2990    0.0000 C   0  0  0  0  0  0  0  0  0  0  0  0
    0.7500    1.2990    0.0000 C   0  0  0  0  0  0  0  0  0  0  0  0
  1  2  1  0
  2  3  2  0
  2  4  1  0
  4  5  1  0
  5  6  2  0
  5  7  1  0
  7  8  1  0
  8  9  2  0
  9 10  1  0
 10 11  1  0
 11 12  2  0
 11 13  1  0
 13 14  1  0
 14 15  2  0
 15 16  1  0
 16 17  2  0
 17 18  1  0
 18 19  1  0
 19 20  2  0
 20 21  1  0
 21 22  2  0
 22 23  1  0
 23 24  2  0
 24 25  1  0
 25 26  2  0
 26 27  1  0
 27 28  2  0
 27 29  1  0
 29 30  1  0
 26 31  1  0
 31 32  2  0
 22 33  1  0
 33 34  2  0
 34 35  1  0
 35 36  2  0
 36 37  1  0
 37 38  2  0
 38 39  1  0
 39 40  1  0
 38 41  1  0
 41 42  1  0
 41 43  2  0
 10 44  2  0
 44 45  1  0
 45  7  1  0
 18 14  1  0
 34 19  1  0
 43 35  1  0
 32 23  1  0
M  END
>  <Title>  (573) 
idAAWAgen7

$$$$

     RDKit          2D

 29 33  0  0  0  0  0  0  0  0999 V2000
    7.5646   -0.1148    0.0000 C   0  0  0  0  0  0  0  0  0  0  0  0
    6.0974   -0.4266    0.0000 C   0  0  0  0  0  0  0  0  0  0  0  0
    4.9826    0.5771    0.0000 C   0  0  0  0  0  0  0  0  0  0  0  0
    3.6836   -0.1729    0.0000 C   0  0  0  0  0  0  0  0  0  0  0  0
    3.9955   -1.6402    0.0000 C   0  0  0  0  0  0  0  0  0  0  0  0
    2.9918   -2.7549    0.0000 C   0  0  0  0  0  0  0  0  0  0  0  0
    3.3037   -4.2221    0.0000 N   0  0  0  0  0  0  0  0  0  0  0  0
    2.0046   -4.9721    0.0000 N   0  0  0  0  0  0  0  0  0  0  0  0
    0.8899   -3.9684    0.0000 N   0  0  0  0  0  0  0  0  0  0  0  0
    1.5000   -2.5981    0.0000 N   0  0  0  0  0  0  0  0  0  0  0  0
    0.7500   -1.2990    0.0000 C   0  0  0  0  0  0  0  0  0  0  0  0
    1.5000    0.0000    0.0000 C   0  0  0  0  0  0  0  0  0  0  0  0
    0.7500    1.2990    0.0000 C   0  0  0  0  0  0  0  0  0  0  0  0
   -0.7500    1.2990    0.0000 C   0  0  0  0  0  0  0  0  0  0  0  0
   -1.5000    2.5981    0.0000 C   0  0  0  0  0  0  0  0  0  0  0  0
   -2.9918    2.7549    0.0000 N   0  0  0  0  0  0  0  0  0  0  0  0
   -3.3037    4.2221    0.0000 N   0  0  0  0  0  0  0  0  0  0  0  0
   -2.0046    4.9721    0.0000 N   0  0  0  0  0  0  0  0  0  0  0  0
   -0.8899    3.9684    0.0000 N   0  0  0  0  0  0  0  0  0  0  0  0
    0.5773    4.2803    0.0000 C   0  0  0  0  0  0  0  0  0  0  0  0
    1.5810    3.1655    0.0000 C   0  0  0  0  0  0  0  0  0  0  0  0
    3.0482    3.4774    0.0000 C   0  0  0  0  0  0  0  0  0  0  0  0
    3.5118    4.9040    0.0000 C   0  0  0  0  0  0  0  0  0  0  0  0
    2.5081    6.0187    0.0000 C   0  0  0  0  0  0  0  0  0  0  0  0
    1.0409    5.7068    0.0000 C   0  0  0  0  0  0  0  0  0  0  0  0
   -1.5000    0.0000    0.0000 C   0  0  0  0  0  0  0  0  0  0  0  0
   -3.0000    0.0000    0.0000 O   0  0  0  0  0  0  0  0  0  0  0  0
   -0.7500   -1.2990    0.0000 N   0  0  0  0  0  0  0  0  0  0  0  0
    5.4873   -1.7969    0.0000 C   0  0  0  0  0  0  0  0  0  0  0  0
  1  2  1  0
  2  3  2  0
  3  4  1  0
  4  5  2  0
  5  6  1  0
  6  7  2  0
  7  8  1  0
  8  9  2  0
  9 10  1  0
 10 11  1  0
 11 12  2  0
 12 13  1  0
 13 14  2  0
 14 15  1  0
 15 16  2  0
 16 17  1  0
 17 18  2  0
 18 19  1  0
 19 20  1  0
 20 21  2  0
 21 22  1  0
 22 23  2  0
 23 24  1  0
 24 25  2  0
 14 26  1  0
 26 27  2  0
 26 28  1  0
  5 29  1  0
 29  2  1  0
 10  6  1  0
 28 11  1  0
 19 15  1  0
 25 20  1  0
M  END
>  <Title>  (574) 
idAAWBgen7

$$$$

     RDKit          2D

 33 37  0  0  0  0  0  0  0  0999 V2000
    3.0000    0.0000    0.0000 C   0  0  0  0  0  0  0  0  0  0  0  0
    1.5000    0.0000    0.0000 C   0  0  0  0  0  0  0  0  0  0  0  0
    0.7500   -1.2990    0.0000 C   0  0  0  0  0  0  0  0  0  0  0  0
   -0.7500   -1.2990    0.0000 C   0  0  0  0  0  0  0  0  0  0  0  0
   -1.5000    0.0000    0.0000 C   0  0  0  0  0  0  0  0  0  0  0  0
   -3.0000    0.0000    0.0000 C   0  0  0  0  0  0  0  0  0  0  0  0
   -3.8817   -1.2135    0.0000 N   0  0  0  0  0  0  0  0  0  0  0  0
   -5.3083   -0.7500    0.0000 N   0  0  0  0  0  0  0  0  0  0  0  0
   -5.3083    0.7500    0.0000 N   0  0  0  0  0  0  0  0  0  0  0  0
   -3.8817    1.2135    0.0000 N   0  0  0  0  0  0  0  0  0  0  0  0
   -3.4182    2.6401    0.0000 C   0  0  0  0  0  0  0  0  0  0  0  0
   -1.9509    2.9520    0.0000 C   0  0  0  0  0  0  0  0  0  0  0  0
   -1.4874    4.3786    0.0000 C   0  0  0  0  0  0  0  0  0  0  0  0
   -2.4911    5.4933    0.0000 C   0  0  0  0  0  0  0  0  0  0  0  0
   -2.0276    6.9199    0.0000 C   0  0  0  0  0  0  0  0  0  0  0  0
   -3.0313    8.0346    0.0000 O   0  0  0  0  0  0  0  0  0  0  0  0
   -0.5604    7.2317    0.0000 N   0  0  0  0  0  0  0  0  0  0  0  0
   -0.0968    8.6583    0.0000 C   0  0  0  0  0  0  0  0  0  0  0  0
    1.3704    8.9702    0.0000 C   0  0  0  0  0  0  0  0  0  0  0  0
    1.8339   10.3968    0.0000 C   0  0  0  0  0  0  0  0  0  0  0  0
    0.8302   11.5115    0.0000 C   0  0  0  0  0  0  0  0  0  0  0  0
    1.2937   12.9381    0.0000 C   0  0  0  0  0  0  0  0  0  0  0  0
    2.7610   13.2499    0.0000 C   0  0  0  0  0  0  0  0  0  0  0  0
    3.2245   14.6765    0.0000 C   0  0  0  0  0  0  0  0  0  0  0  0
    2.2208   15.7912    0.0000 C   0  0  0  0  0  0  0  0  0  0  0  0
    0.7536   15.4794    0.0000 C   0  0  0  0  0  0  0  0  0  0  0  0
    0.2901   14.0528    0.0000 C   0  0  0  0  0  0  0  0  0  0  0  0
   -0.6370   11.1996    0.0000 C   0  0  0  0  0  0  0  0  0  0  0  0
   -1.1005    9.7730    0.0000 C   0  0  0  0  0  0  0  0  0  0  0  0
   -3.9583    5.1814    0.0000 C   0  0  0  0  0  0  0  0  0  0  0  0
   -4.4218    3.7548    0.0000 C   0  0  0  0  0  0  0  0  0  0  0  0
   -0.7500    1.2990    0.0000 C   0  0  0  0  0  0  0  0  0  0  0  0
    0.7500    1.2990    0.0000 C   0  0  0  0  0  0  0  0  0  0  0  0
  1  2  1  0
  2  3  2  0
  3  4  1  0
  4  5  2  0
  5  6  1  0
  6  7  2  0
  7  8  1  0
  8  9  2  0
  9 10  1  0
 10 11  1  0
 11 12  2  0
 12 13  1  0
 13 14  2  0
 14 15  1  0
 15 16  2  0
 15 17  1  0
 17 18  1  0
 18 19  2  0
 19 20  1  0
 20 21  2  0
 21 22  1  0
 22 23  2  0
 23 24  1  0
 24 25  2  0
 25 26  1  0
 26 27  2  0
 21 28  1  0
 28 29  2  0
 14 30  1  0
 30 31  2  0
  5 32  1  0
 32 33  2  0
 33  2  1  0
 10  6  1  0
 31 11  1  0
 29 18  1  0
 27 22  1  0
M  END
>  <Title>  (575) 
idAAWCgen7

$$$$

     RDKit          2D

 47 52  0  0  0  0  0  0  0  0999 V2000
    5.2500   -1.2990    0.0000 C   0  0  0  0  0  0  0  0  0  0  0  0
    3.7500   -1.2990    0.0000 C   0  0  0  0  0  0  0  0  0  0  0  0
    3.0000   -2.5981    0.0000 O   0  0  0  0  0  0  0  0  0  0  0  0
    3.0000    0.0000    0.0000 N   0  0  0  0  0  0  0  0  0  0  0  0
    1.5000    0.0000    0.0000 C   0  0  0  0  0  0  0  0  0  0  0  0
    0.7500   -1.2990    0.0000 C   0  0  0  0  0  0  0  0  0  0  0  0
   -0.7500   -1.2990    0.0000 C   0  0  0  0  0  0  0  0  0  0  0  0
   -1.5000    0.0000    0.0000 C   0  0  0  0  0  0  0  0  0  0  0  0
   -3.0000    0.0000    0.0000 C   0  0  0  0  0  0  0  0  0  0  0  0
   -3.7500   -1.2990    0.0000 O   0  0  0  0  0  0  0  0  0  0  0  0
   -3.7500    1.2990    0.0000 N   0  0  0  0  0  0  0  0  0  0  0  0
   -5.2500    1.2990    0.0000 C   0  0  0  0  0  0  0  0  0  0  0  0
   -6.1317    0.0855    0.0000 N   0  0  0  0  0  0  0  0  0  0  0  0
   -7.5583    0.5490    0.0000 N   0  0  0  0  0  0  0  0  0  0  0  0
   -7.5583    2.0490    0.0000 N   0  0  0  0  0  0  0  0  0  0  0  0
   -6.1317    2.5126    0.0000 N   0  0  0  0  0  0  0  0  0  0  0  0
   -5.6682    3.9391    0.0000 C   0  0  0  0  0  0  0  0  0  0  0  0
   -4.2009    4.2510    0.0000 C   0  0  0  0  0  0  0  0  0  0  0  0
   -3.7374    5.6776    0.0000 C   0  0  0  0  0  0  0  0  0  0  0  0
   -4.7411    6.7923    0.0000 C   0  0  0  0  0  0  0  0  0  0  0  0
   -4.2776    8.2189    0.0000 C   0  0  0  0  0  0  0  0  0  0  0  0
   -5.2813    9.3336    0.0000 C   0  0  0  0  0  0  0  0  0  0  0  0
   -4.8177   10.7602    0.0000 C   0  0  0  0  0  0  0  0  0  0  0  0
   -3.3505   11.0721    0.0000 C   0  0  0  0  0  0  0  0  0  0  0  0
   -2.8870   12.4987    0.0000 C   0  0  0  0  0  0  0  0  0  0  0  0
   -3.8907   13.6134    0.0000 C   0  0  0  0  0  0  0  0  0  0  0  0
   -3.4272   15.0400    0.0000 C   0  0  0  0  0  0  0  0  0  0  0  0
   -1.9599   15.3518    0.0000 C   0  0  0  0  0  0  0  0  0  0  0  0
   -0.9563   14.2371    0.0000 C   0  0  0  0  0  0  0  0  0  0  0  0
   -1.4198   12.8105    0.0000 C   0  0  0  0  0  0  0  0  0  0  0  0
   -2.3468    9.9574    0.0000 C   0  0  0  0  0  0  0  0  0  0  0  0
   -2.8104    8.5308    0.0000 C   0  0  0  0  0  0  0  0  0  0  0  0
   -1.8067    7.4161    0.0000 C   0  0  0  0  0  0  0  0  0  0  0  0
   -0.3394    7.7279    0.0000 C   0  0  0  0  0  0  0  0  0  0  0  0
    0.6643    6.6132    0.0000 C   0  0  0  0  0  0  0  0  0  0  0  0
    0.2007    5.1866    0.0000 C   0  0  0  0  0  0  0  0  0  0  0  0
    1.2044    4.0719    0.0000 C   0  0  0  0  0  0  0  0  0  0  0  0
    0.7409    2.6453    0.0000 O   0  0  0  0  0  0  0  0  0  0  0  0
    2.6717    4.3838    0.0000 N   0  0  0  0  0  0  0  0  0  0  0  0
    3.6753    3.2691    0.0000 O   0  0  0  0  0  0  0  0  0  0  0  0
   -1.2665    4.8748    0.0000 C   0  0  0  0  0  0  0  0  0  0  0  0
   -2.2702    5.9895    0.0000 C   0  0  0  0  0  0  0  0  0  0  0  0
   -6.2083    6.4805    0.0000 C   0  0  0  0  0  0  0  0  0  0  0  0
   -7.2120    7.5952    0.0000 C   0  0  0  0  0  0  0  0  0  0  0  0
   -6.6718    5.0539    0.0000 C   0  0  0  0  0  0  0  0  0  0  0  0
   -0.7500    1.2990    0.0000 C   0  0  0  0  0  0  0  0  0  0  0  0
    0.7500    1.2990    0.0000 C   0  0  0  0  0  0  0  0  0  0  0  0
  1  2  1  0
  2  3  2  0
  2  4  1  0
  4  5  1  0
  5  6  2  0
  6  7  1  0
  7  8  2  0
  8  9  1  0
  9 10  2  0
  9 11  1  0
 11 12  1  0
 12 13  2  0
 13 14  1  0
 14 15  2  0
 15 16  1  0
 16 17  1  0
 17 18  2  0
 18 19  1  0
 19 20  2  0
 20 21  1  0
 21 22  2  0
 22 23  1  0
 23 24  2  0
 24 25  1  0
 25 26  2  0
 26 27  1  0
 27 28  2  0
 28 29  1  0
 29 30  2  0
 24 31  1  0
 31 32  2  0
 32 33  1  0
 33 34  2  0
 34 35  1  0
 35 36  2  0
 36 37  1  0
 37 38  2  0
 37 39  1  0
 39 40  1  0
 36 41  1  0
 41 42  1  0
 20 43  1  0
 43 44  1  0
 43 45  2  0
  8 46  1  0
 46 47  2  0
 47  5  1  0
 16 12  1  0
 45 17  1  0
 32 21  1  0
 42 33  1  0
 30 25  1  0
M  END
>  <Title>  (576) 
idAAWDgen7

$$$$

     RDKit          2D

 18 18  0  0  0  0  0  0  0  0999 V2000
    5.5816    0.0000    0.0000 O   0  0  0  0  0  0  0  0  0  0  0  0
    4.0816    0.0000    0.0000 C   0  0  0  0  0  0  0  0  0  0  0  0
    3.8060    1.4745    0.0000 C   0  0  0  0  0  0  0  0  0  0  0  0
    3.0164    2.7498    0.0000 C   0  0  0  0  0  0  0  0  0  0  0  0
    1.8193    3.6537    0.0000 C   0  0  0  0  0  0  0  0  0  0  0  0
    0.3766    4.0642    0.0000 C   0  0  0  0  0  0  0  0  0  0  0  0
   -1.1170    3.9258    0.0000 C   0  0  0  0  0  0  0  0  0  0  0  0
   -2.4597    3.2572    0.0000 C   0  0  0  0  0  0  0  0  0  0  0  0
   -3.4703    2.1487    0.0000 C   0  0  0  0  0  0  0  0  0  0  0  0
   -4.0121    0.7500    0.0000 C   0  0  0  0  0  0  0  0  0  0  0  0
   -4.0121   -0.7500    0.0000 C   0  0  0  0  0  0  0  0  0  0  0  0
   -3.4703   -2.1487    0.0000 C   0  0  0  0  0  0  0  0  0  0  0  0
   -2.4597   -3.2572    0.0000 C   0  0  0  0  0  0  0  0  0  0  0  0
   -1.1170   -3.9258    0.0000 C   0  0  0  0  0  0  0  0  0  0  0  0
    0.3766   -4.0642    0.0000 C   0  0  0  0  0  0  0  0  0  0  0  0
    1.8193   -3.6537    0.0000 C   0  0  0  0  0  0  0  0  0  0  0  0
    3.0164   -2.7498    0.0000 C   0  0  0  0  0  0  0  0  0  0  0  0
    3.8060   -1.4745    0.0000 C   0  0  0  0  0  0  0  0  0  0  0  0
  1  2  2  0
  2  3  1  0
  3  4  2  0
  4  5  1  0
  5  6  2  0
  6  7  1  0
  7  8  2  0
  8  9  1  0
  9 10  2  0
 10 11  1  0
 11 12  2  0
 12 13  1  0
 13 14  2  0
 14 15  1  0
 15 16  2  0
 16 17  1  0
 17 18  1  0
 18  2  1  0
M  END
>  <Title>  (577) 
idAAWEgen7

$$$$

     RDKit          2D

 43 48  0  0  0  0  0  0  0  0999 V2000
    3.0000    0.0000    0.0000 C   0  0  0  0  0  0  0  0  0  0  0  0
    1.5000    0.0000    0.0000 C   0  0  0  0  0  0  0  0  0  0  0  0
    0.7500   -1.2990    0.0000 C   0  0  0  0  0  0  0  0  0  0  0  0
   -0.7500   -1.2990    0.0000 C   0  0  0  0  0  0  0  0  0  0  0  0
   -1.5000    0.0000    0.0000 C   0  0  0  0  0  0  0  0  0  0  0  0
   -3.0000    0.0000    0.0000 C   0  0  0  0  0  0  0  0  0  0  0  0
   -3.7500   -1.2990    0.0000 O   0  0  0  0  0  0  0  0  0  0  0  0
   -3.7500    1.2990    0.0000 N   0  0  0  0  0  0  0  0  0  0  0  0
   -5.2500    1.2990    0.0000 C   0  0  0  0  0  0  0  0  0  0  0  0
   -6.1317    0.0855    0.0000 N   0  0  0  0  0  0  0  0  0  0  0  0
   -7.5583    0.5490    0.0000 N   0  0  0  0  0  0  0  0  0  0  0  0
   -7.5583    2.0490    0.0000 N   0  0  0  0  0  0  0  0  0  0  0  0
   -6.1317    2.5126    0.0000 N   0  0  0  0  0  0  0  0  0  0  0  0
   -5.6682    3.9391    0.0000 C   0  0  0  0  0  0  0  0  0  0  0  0
   -4.2009    4.2510    0.0000 C   0  0  0  0  0  0  0  0  0  0  0  0
   -3.7374    5.6776    0.0000 C   0  0  0  0  0  0  0  0  0  0  0  0
   -4.7411    6.7923    0.0000 C   0  0  0  0  0  0  0  0  0  0  0  0
   -4.2776    8.2189    0.0000 C   0  0  0  0  0  0  0  0  0  0  0  0
   -5.2813    9.3336    0.0000 O   0  0  0  0  0  0  0  0  0  0  0  0
   -2.8104    8.5308    0.0000 N   0  0  0  0  0  0  0  0  0  0  0  0
   -2.3468    9.9574    0.0000 C   0  0  0  0  0  0  0  0  0  0  0  0
   -3.2285   11.1709    0.0000 N   0  0  0  0  0  0  0  0  0  0  0  0
   -2.3468   12.3844    0.0000 N   0  0  0  0  0  0  0  0  0  0  0  0
   -0.9202   11.9209    0.0000 N   0  0  0  0  0  0  0  0  0  0  0  0
   -0.9202   10.4209    0.0000 N   0  0  0  0  0  0  0  0  0  0  0  0
    0.2933    9.5392    0.0000 C   0  0  0  0  0  0  0  0  0  0  0  0
    0.1365    8.0474    0.0000 C   0  0  0  0  0  0  0  0  0  0  0  0
    1.3500    7.1657    0.0000 C   0  0  0  0  0  0  0  0  0  0  0  0
    2.7203    7.7758    0.0000 C   0  0  0  0  0  0  0  0  0  0  0  0
    3.9339    6.8942    0.0000 C   0  0  0  0  0  0  0  0  0  0  0  0
    3.7771    5.4024    0.0000 C   0  0  0  0  0  0  0  0  0  0  0  0
    4.9906    4.5207    0.0000 C   0  0  0  0  0  0  0  0  0  0  0  0
    6.3609    5.1308    0.0000 C   0  0  0  0  0  0  0  0  0  0  0  0
    6.5177    6.6226    0.0000 C   0  0  0  0  0  0  0  0  0  0  0  0
    5.3042    7.5043    0.0000 C   0  0  0  0  0  0  0  0  0  0  0  0
    2.8771    9.2676    0.0000 C   0  0  0  0  0  0  0  0  0  0  0  0
    1.6636   10.1493    0.0000 N   0  0  0  0  0  0  0  0  0  0  0  0
   -6.2083    6.4805    0.0000 C   0  0  0  0  0  0  0  0  0  0  0  0
   -7.2120    7.5952    0.0000 C   0  0  0  0  0  0  0  0  0  0  0  0
   -6.6718    5.0539    0.0000 C   0  0  0  0  0  0  0  0  0  0  0  0
   -0.7500    1.2990    0.0000 C   0  0  0  0  0  0  0  0  0  0  0  0
   -1.5000    2.5981    0.0000 O   0  0  0  0  0  0  0  0  0  0  0  0
    0.7500    1.2990    0.0000 N   0  0  0  0  0  0  0  0  0  0  0  0
  1  2  1  0
  2  3  2  0
  3  4  1  0
  4  5  2  0
  5  6  1  0
  6  7  2  0
  6  8  1  0
  8  9  1  0
  9 10  2  0
 10 11  1  0
 11 12  2  0
 12 13  1  0
 13 14  1  0
 14 15  2  0
 15 16  1  0
 16 17  2  0
 17 18  1  0
 18 19  2  0
 18 20  1  0
 20 21  1  0
 21 22  2  0
 22 23  1  0
 23 24  2  0
 24 25  1  0
 25 26  1  0
 26 27  2  0
 27 28  1  0
 28 29  2  0
 29 30  1  0
 30 31  2  0
 31 32  1  0
 32 33  2  0
 33 34  1  0
 34 35  2  0
 29 36  1  0
 36 37  2  0
 17 38  1  0
 38 39  1  0
 38 40  2  0
  5 41  1  0
 41 42  2  0
 41 43  1  0
 43  2  1  0
 13  9  1  0
 40 14  1  0
 25 21  1  0
 37 26  1  0
 35 30  1  0
M  END
>  <Title>  (578) 
idAAWFgen7

$$$$

     RDKit          2D

 16 16  0  0  0  0  0  0  0  0999 V2000
    5.1073    0.0000    0.0000 C   0  0  0  0  0  0  0  0  0  0  0  0
    3.6073    0.0000    0.0000 C   0  0  0  0  0  0  0  0  0  0  0  0
    3.2954    1.4672    0.0000 C   0  0  0  0  0  0  0  0  0  0  0  0
    2.4138    2.6807    0.0000 C   0  0  0  0  0  0  0  0  0  0  0  0
    1.1147    3.4307    0.0000 C   0  0  0  0  0  0  0  0  0  0  0  0
   -0.3771    3.5875    0.0000 C   0  0  0  0  0  0  0  0  0  0  0  0
   -1.8037    3.1240    0.0000 C   0  0  0  0  0  0  0  0  0  0  0  0
   -2.9184    2.1203    0.0000 C   0  0  0  0  0  0  0  0  0  0  0  0
   -3.5285    0.7500    0.0000 C   0  0  0  0  0  0  0  0  0  0  0  0
   -3.5285   -0.7500    0.0000 C   0  0  0  0  0  0  0  0  0  0  0  0
   -2.9184   -2.1203    0.0000 C   0  0  0  0  0  0  0  0  0  0  0  0
   -1.8037   -3.1240    0.0000 C   0  0  0  0  0  0  0  0  0  0  0  0
   -0.3771   -3.5875    0.0000 C   0  0  0  0  0  0  0  0  0  0  0  0
    1.1147   -3.4307    0.0000 C   0  0  0  0  0  0  0  0  0  0  0  0
    2.4138   -2.6807    0.0000 C   0  0  0  0  0  0  0  0  0  0  0  0
    3.2954   -1.4672    0.0000 C   0  0  0  0  0  0  0  0  0  0  0  0
  1  2  1  0
  2  3  1  0
  3  4  1  0
  4  5  1  0
  5  6  1  0
  6  7  1  0
  7  8  1  0
  8  9  1  0
  9 10  1  0
 10 11  1  0
 11 12  1  0
 12 13  1  0
 13 14  1  0
 14 15  1  0
 15 16  1  0
 16  2  1  0
M  END
>  <Title>  (579) 
idAAWGgen7

$$$$

     RDKit          2D

 27 27  0  0  0  0  0  0  0  0999 V2000
    7.2460    0.0000    0.0000 C   0  0  0  0  0  0  0  0  0  0  0  0
    5.7460    0.0000    0.0000 C   0  0  0  0  0  0  0  0  0  0  0  0
    5.5502   -1.4872    0.0000 C   0  0  0  0  0  0  0  0  0  0  0  0
    4.9762   -2.8730    0.0000 C   0  0  0  0  0  0  0  0  0  0  0  0
    4.0630   -4.0630    0.0000 C   0  0  0  0  0  0  0  0  0  0  0  0
    2.8730   -4.9762    0.0000 C   0  0  0  0  0  0  0  0  0  0  0  0
    1.4872   -5.5502    0.0000 C   0  0  0  0  0  0  0  0  0  0  0  0
   -0.0000   -5.7460    0.0000 C   0  0  0  0  0  0  0  0  0  0  0  0
   -1.4872   -5.5502    0.0000 C   0  0  0  0  0  0  0  0  0  0  0  0
   -2.8730   -4.9762    0.0000 C   0  0  0  0  0  0  0  0  0  0  0  0
   -4.0630   -4.0630    0.0000 C   0  0  0  0  0  0  0  0  0  0  0  0
   -4.9762   -2.8730    0.0000 C   0  0  0  0  0  0  0  0  0  0  0  0
   -5.5502   -1.4872    0.0000 C   0  0  0  0  0  0  0  0  0  0  0  0
   -5.7460    0.0000    0.0000 C   0  0  0  0  0  0  0  0  0  0  0  0
   -5.5502    1.4872    0.0000 C   0  0  0  0  0  0  0  0  0  0  0  0
   -4.9762    2.8730    0.0000 C   0  0  0  0  0  0  0  0  0  0  0  0
   -4.0630    4.0630    0.0000 C   0  0  0  0  0  0  0  0  0  0  0  0
   -2.8730    4.9762    0.0000 C   0  0  0  0  0  0  0  0  0  0  0  0
   -1.4872    5.5502    0.0000 C   0  0  0  0  0  0  0  0  0  0  0  0
    0.0000    5.7460    0.0000 C   0  0  0  0  0  0  0  0  0  0  0  0
    1.4872    5.5502    0.0000 C   0  0  0  0  0  0  0  0  0  0  0  0
    2.8730    4.9762    0.0000 C   0  0  0  0  0  0  0  0  0  0  0  0
    4.0630    4.0630    0.0000 C   0  0  0  0  0  0  0  0  0  0  0  0
    5.1237    5.1237    0.0000 C   0  0  0  0  0  0  0  0  0  0  0  0
    4.9762    2.8730    0.0000 C   0  0  0  0  0  0  0  0  0  0  0  0
    6.2752    3.6230    0.0000 O   0  0  0  0  0  0  0  0  0  0  0  0
    5.5502    1.4872    0.0000 N   0  0  0  0  0  0  0  0  0  0  0  0
  1  2  1  0
  2  3  2  0
  3  4  1  0
  4  5  2  0
  5  6  1  0
  6  7  2  0
  7  8  1  0
  8  9  2  0
  9 10  1  0
 10 11  2  0
 11 12  1  0
 12 13  2  0
 13 14  1  0
 14 15  2  0
 15 16  1  0
 16 17  2  0
 17 18  1  0
 18 19  2  0
 19 20  1  0
 20 21  2  0
 21 22  1  0
 22 23  2  0
 23 24  1  0
 23 25  1  0
 25 26  2  0
 25 27  1  0
 27  2  1  0
M  END
>  <Title>  (580) 
idAAWHgen7

$$$$

     RDKit          2D

 44 50  0  0  0  0  0  0  0  0999 V2000
    3.0000    0.0000    0.0000 C   0  0  0  0  0  0  0  0  0  0  0  0
    1.5000    0.0000    0.0000 C   0  0  0  0  0  0  0  0  0  0  0  0
    0.7500   -1.2990    0.0000 C   0  0  0  0  0  0  0  0  0  0  0  0
   -0.7500   -1.2990    0.0000 C   0  0  0  0  0  0  0  0  0  0  0  0
   -1.5000    0.0000    0.0000 C   0  0  0  0  0  0  0  0  0  0  0  0
   -3.0000    0.0000    0.0000 C   0  0  0  0  0  0  0  0  0  0  0  0
   -3.8817   -1.2135    0.0000 N   0  0  0  0  0  0  0  0  0  0  0  0
   -5.3083   -0.7500    0.0000 N   0  0  0  0  0  0  0  0  0  0  0  0
   -5.3083    0.7500    0.0000 N   0  0  0  0  0  0  0  0  0  0  0  0
   -3.8817    1.2135    0.0000 N   0  0  0  0  0  0  0  0  0  0  0  0
   -3.4182    2.6401    0.0000 C   0  0  0  0  0  0  0  0  0  0  0  0
   -1.9509    2.9520    0.0000 C   0  0  0  0  0  0  0  0  0  0  0  0
   -1.4874    4.3786    0.0000 C   0  0  0  0  0  0  0  0  0  0  0  0
   -2.4911    5.4933    0.0000 C   0  0  0  0  0  0  0  0  0  0  0  0
   -2.0276    6.9199    0.0000 C   0  0  0  0  0  0  0  0  0  0  0  0
   -3.0313    8.0346    0.0000 O   0  0  0  0  0  0  0  0  0  0  0  0
   -0.5604    7.2317    0.0000 N   0  0  0  0  0  0  0  0  0  0  0  0
   -0.0968    8.6583    0.0000 C   0  0  0  0  0  0  0  0  0  0  0  0
   -0.9785    9.8718    0.0000 N   0  0  0  0  0  0  0  0  0  0  0  0
   -0.0968   11.0854    0.0000 N   0  0  0  0  0  0  0  0  0  0  0  0
    1.3298   10.6218    0.0000 N   0  0  0  0  0  0  0  0  0  0  0  0
    1.3298    9.1218    0.0000 N   0  0  0  0  0  0  0  0  0  0  0  0
    2.5433    8.2402    0.0000 C   0  0  0  0  0  0  0  0  0  0  0  0
    2.3865    6.7484    0.0000 C   0  0  0  0  0  0  0  0  0  0  0  0
    3.6000    5.8667    0.0000 C   0  0  0  0  0  0  0  0  0  0  0  0
    4.9703    6.4768    0.0000 C   0  0  0  0  0  0  0  0  0  0  0  0
    6.1839    5.5951    0.0000 C   0  0  0  0  0  0  0  0  0  0  0  0
    6.0271    4.1033    0.0000 C   0  0  0  0  0  0  0  0  0  0  0  0
    7.2406    3.2217    0.0000 C   0  0  0  0  0  0  0  0  0  0  0  0
    8.6109    3.8318    0.0000 C   0  0  0  0  0  0  0  0  0  0  0  0
    8.7677    5.3236    0.0000 C   0  0  0  0  0  0  0  0  0  0  0  0
    7.5542    6.2052    0.0000 C   0  0  0  0  0  0  0  0  0  0  0  0
    5.1271    7.9686    0.0000 C   0  0  0  0  0  0  0  0  0  0  0  0
    3.9136    8.8503    0.0000 C   0  0  0  0  0  0  0  0  0  0  0  0
    4.0704   10.3421    0.0000 N   0  0  0  0  0  0  0  0  0  0  0  0
    2.9557   11.3457    0.0000 N   0  0  0  0  0  0  0  0  0  0  0  0
    3.5658   12.7161    0.0000 N   0  0  0  0  0  0  0  0  0  0  0  0
    5.0576   12.5593    0.0000 N   0  0  0  0  0  0  0  0  0  0  0  0
    5.3694   11.0921    0.0000 N   0  0  0  0  0  0  0  0  0  0  0  0
   -3.9583    5.1814    0.0000 C   0  0  0  0  0  0  0  0  0  0  0  0
   -4.9620    6.2961    0.0000 O   0  0  0  0  0  0  0  0  0  0  0  0
   -4.4218    3.7548    0.0000 N   0  0  0  0  0  0  0  0  0  0  0  0
   -0.7500    1.2990    0.0000 N   0  0  0  0  0  0  0  0  0  0  0  0
    0.7500    1.2990    0.0000 C   0  0  0  0  0  0  0  0  0  0  0  0
  1  2  1  0
  2  3  2  0
  3  4  1  0
  4  5  2  0
  5  6  1  0
  6  7  2  0
  7  8  1  0
  8  9  2  0
  9 10  1  0
 10 11  1  0
 11 12  2  0
 12 13  1  0
 13 14  2  0
 14 15  1  0
 15 16  2  0
 15 17  1  0
 17 18  1  0
 18 19  2  0
 19 20  1  0
 20 21  2  0
 21 22  1  0
 22 23  1  0
 23 24  2  0
 24 25  1  0
 25 26  2  0
 26 27  1  0
 27 28  2  0
 28 29  1  0
 29 30  2  0
 30 31  1  0
 31 32  2  0
 26 33  1  0
 33 34  2  0
 34 35  1  0
 35 36  1  0
 36 37  2  0
 37 38  1  0
 38 39  2  0
 14 40  1  0
 40 41  2  0
 40 42  1  0
  5 43  1  0
 43 44  2  0
 44  2  1  0
 10  6  1  0
 42 11  1  0
 22 18  1  0
 34 23  1  0
 39 35  1  0
 32 27  1  0
M  END
>  <Title>  (581) 
idAAWIgen7

$$$$

     RDKit          2D

 37 41  0  0  0  0  0  0  0  0999 V2000
    3.0000    0.0000    0.0000 C   0  0  0  0  0  0  0  0  0  0  0  0
    1.5000    0.0000    0.0000 C   0  0  0  0  0  0  0  0  0  0  0  0
    0.7500   -1.2990    0.0000 C   0  0  0  0  0  0  0  0  0  0  0  0
   -0.7500   -1.2990    0.0000 C   0  0  0  0  0  0  0  0  0  0  0  0
   -1.5000    0.0000    0.0000 C   0  0  0  0  0  0  0  0  0  0  0  0
   -3.0000    0.0000    0.0000 C   0  0  0  0  0  0  0  0  0  0  0  0
   -3.7500   -1.2990    0.0000 O   0  0  0  0  0  0  0  0  0  0  0  0
   -3.7500    1.2990    0.0000 N   0  0  0  0  0  0  0  0  0  0  0  0
   -5.2500    1.2990    0.0000 C   0  0  0  0  0  0  0  0  0  0  0  0
   -6.1317    0.0855    0.0000 N   0  0  0  0  0  0  0  0  0  0  0  0
   -7.5583    0.5490    0.0000 N   0  0  0  0  0  0  0  0  0  0  0  0
   -7.5583    2.0490    0.0000 N   0  0  0  0  0  0  0  0  0  0  0  0
   -6.1317    2.5126    0.0000 N   0  0  0  0  0  0  0  0  0  0  0  0
   -5.6682    3.9391    0.0000 C   0  0  0  0  0  0  0  0  0  0  0  0
   -4.2009    4.2510    0.0000 C   0  0  0  0  0  0  0  0  0  0  0  0
   -3.7374    5.6776    0.0000 C   0  0  0  0  0  0  0  0  0  0  0  0
   -4.7411    6.7923    0.0000 C   0  0  0  0  0  0  0  0  0  0  0  0
   -4.2776    8.2189    0.0000 C   0  0  0  0  0  0  0  0  0  0  0  0
   -5.2813    9.3336    0.0000 O   0  0  0  0  0  0  0  0  0  0  0  0
   -2.8104    8.5308    0.0000 N   0  0  0  0  0  0  0  0  0  0  0  0
   -2.3468    9.9574    0.0000 C   0  0  0  0  0  0  0  0  0  0  0  0
   -3.3505   11.0721    0.0000 C   0  0  0  0  0  0  0  0  0  0  0  0
   -2.8870   12.4987    0.0000 C   0  0  0  0  0  0  0  0  0  0  0  0
   -1.4198   12.8105    0.0000 C   0  0  0  0  0  0  0  0  0  0  0  0
   -0.4161   11.6958    0.0000 C   0  0  0  0  0  0  0  0  0  0  0  0
   -0.8796   10.2692    0.0000 C   0  0  0  0  0  0  0  0  0  0  0  0
    0.1241    9.1545    0.0000 C   0  0  0  0  0  0  0  0  0  0  0  0
    1.5913    9.4664    0.0000 C   0  0  0  0  0  0  0  0  0  0  0  0
    2.5950    8.3517    0.0000 C   0  0  0  0  0  0  0  0  0  0  0  0
    2.1315    6.9251    0.0000 C   0  0  0  0  0  0  0  0  0  0  0  0
    0.6643    6.6132    0.0000 C   0  0  0  0  0  0  0  0  0  0  0  0
   -0.3394    7.7279    0.0000 C   0  0  0  0  0  0  0  0  0  0  0  0
   -6.2083    6.4805    0.0000 C   0  0  0  0  0  0  0  0  0  0  0  0
   -6.6718    5.0539    0.0000 C   0  0  0  0  0  0  0  0  0  0  0  0
   -0.7500    1.2990    0.0000 C   0  0  0  0  0  0  0  0  0  0  0  0
   -1.5000    2.5981    0.0000 O   0  0  0  0  0  0  0  0  0  0  0  0
    0.7500    1.2990    0.0000 N   0  0  0  0  0  0  0  0  0  0  0  0
  1  2  1  0
  2  3  2  0
  3  4  1  0
  4  5  2  0
  5  6  1  0
  6  7  2  0
  6  8  1  0
  8  9  1  0
  9 10  2  0
 10 11  1  0
 11 12  2  0
 12 13  1  0
 13 14  1  0
 14 15  2  0
 15 16  1  0
 16 17  2  0
 17 18  1  0
 18 19  2  0
 18 20  1  0
 20 21  1  0
 21 22  2  0
 22 23  1  0
 23 24  2  0
 24 25  1  0
 25 26  2  0
 26 27  1  0
 27 28  2  0
 28 29  1  0
 29 30  2  0
 30 31  1  0
 31 32  2  0
 17 33  1  0
 33 34  2  0
  5 35  1  0
 35 36  2  0
 35 37  1  0
 37  2  1  0
 13  9  1  0
 34 14  1  0
 26 21  1  0
 32 27  1  0
M  END
>  <Title>  (582) 
idAAWJgen7

$$$$

     RDKit          2D

 11 12  0  0  0  0  0  0  0  0999 V2000
   -1.5000   -5.1962    0.0000 O   0  0  0  0  0  0  0  0  0  0  0  0
   -0.7500   -3.8971    0.0000 C   0  0  0  0  0  0  0  0  0  0  0  0
    0.7500   -3.8971    0.0000 C   0  0  0  0  0  0  0  0  0  0  0  0
    1.5000   -2.5981    0.0000 C   0  0  0  0  0  0  0  0  0  0  0  0
    0.7500   -1.2990    0.0000 C   0  0  0  0  0  0  0  0  0  0  0  0
    1.5000    0.0000    0.0000 C   0  0  0  0  0  0  0  0  0  0  0  0
    0.7500    1.2990    0.0000 C   0  0  0  0  0  0  0  0  0  0  0  0
   -0.7500    1.2990    0.0000 C   0  0  0  0  0  0  0  0  0  0  0  0
   -1.5000    0.0000    0.0000 C   0  0  0  0  0  0  0  0  0  0  0  0
   -0.7500   -1.2990    0.0000 C   0  0  0  0  0  0  0  0  0  0  0  0
   -1.5000   -2.5981    0.0000 N   0  0  0  0  0  0  0  0  0  0  0  0
  1  2  1  0
  2  3  2  0
  3  4  1  0
  4  5  2  0
  5  6  1  0
  6  7  2  0
  7  8  1  0
  8  9  2  0
  9 10  1  0
 10 11  2  0
 11  2  1  0
 10  5  1  0
M  END
>  <Title>  (583) 
idAAWKgen7

$$$$

     RDKit          2D

 45 51  0  0  0  0  0  0  0  0999 V2000
   11.0392   -0.4266    0.0000 C   0  0  0  0  0  0  0  0  0  0  0  0
   10.0355    0.6881    0.0000 O   0  0  0  0  0  0  0  0  0  0  0  0
    8.5683    0.3762    0.0000 C   0  0  0  0  0  0  0  0  0  0  0  0
    7.4536    1.3799    0.0000 C   0  0  0  0  0  0  0  0  0  0  0  0
    6.1545    0.6299    0.0000 C   0  0  0  0  0  0  0  0  0  0  0  0
    6.4664   -0.8373    0.0000 C   0  0  0  0  0  0  0  0  0  0  0  0
    5.4627   -1.9520    0.0000 C   0  0  0  0  0  0  0  0  0  0  0  0
    5.9262   -3.3786    0.0000 O   0  0  0  0  0  0  0  0  0  0  0  0
    3.9955   -1.6402    0.0000 N   0  0  0  0  0  0  0  0  0  0  0  0
    2.9918   -2.7549    0.0000 C   0  0  0  0  0  0  0  0  0  0  0  0
    3.3037   -4.2221    0.0000 N   0  0  0  0  0  0  0  0  0  0  0  0
    2.0046   -4.9721    0.0000 N   0  0  0  0  0  0  0  0  0  0  0  0
    0.8899   -3.9684    0.0000 N   0  0  0  0  0  0  0  0  0  0  0  0
    1.5000   -2.5981    0.0000 N   0  0  0  0  0  0  0  0  0  0  0  0
    0.7500   -1.2990    0.0000 C   0  0  0  0  0  0  0  0  0  0  0  0
    1.5000    0.0000    0.0000 C   0  0  0  0  0  0  0  0  0  0  0  0
    0.7500    1.2990    0.0000 C   0  0  0  0  0  0  0  0  0  0  0  0
   -0.7500    1.2990    0.0000 C   0  0  0  0  0  0  0  0  0  0  0  0
   -1.5000    2.5981    0.0000 C   0  0  0  0  0  0  0  0  0  0  0  0
   -0.7500    3.8971    0.0000 C   0  0  0  0  0  0  0  0  0  0  0  0
   -1.5000    5.1962    0.0000 C   0  0  0  0  0  0  0  0  0  0  0  0
   -3.0000    5.1962    0.0000 C   0  0  0  0  0  0  0  0  0  0  0  0
   -3.7500    3.8971    0.0000 C   0  0  0  0  0  0  0  0  0  0  0  0
   -3.0000    2.5981    0.0000 C   0  0  0  0  0  0  0  0  0  0  0  0
   -1.5000    0.0000    0.0000 C   0  0  0  0  0  0  0  0  0  0  0  0
   -0.7500   -1.2990    0.0000 C   0  0  0  0  0  0  0  0  0  0  0  0
   -1.5000   -2.5981    0.0000 C   0  0  0  0  0  0  0  0  0  0  0  0
   -0.8899   -3.9684    0.0000 C   0  0  0  0  0  0  0  0  0  0  0  0
   -2.0046   -4.9721    0.0000 C   0  0  0  0  0  0  0  0  0  0  0  0
   -3.3037   -4.2221    0.0000 C   0  0  0  0  0  0  0  0  0  0  0  0
   -4.6740   -4.8322    0.0000 C   0  0  0  0  0  0  0  0  0  0  0  0
   -5.8875   -3.9505    0.0000 C   0  0  0  0  0  0  0  0  0  0  0  0
   -7.2578   -4.5606    0.0000 C   0  0  0  0  0  0  0  0  0  0  0  0
   -7.4146   -6.0524    0.0000 C   0  0  0  0  0  0  0  0  0  0  0  0
   -8.7849   -6.6625    0.0000 C   0  0  0  0  0  0  0  0  0  0  0  0
   -9.9984   -5.7808    0.0000 C   0  0  0  0  0  0  0  0  0  0  0  0
  -11.3688   -6.3909    0.0000 C   0  0  0  0  0  0  0  0  0  0  0  0
  -11.5256   -7.8827    0.0000 C   0  0  0  0  0  0  0  0  0  0  0  0
  -10.3120   -8.7644    0.0000 C   0  0  0  0  0  0  0  0  0  0  0  0
   -8.9417   -8.1543    0.0000 C   0  0  0  0  0  0  0  0  0  0  0  0
   -6.2011   -6.9341    0.0000 C   0  0  0  0  0  0  0  0  0  0  0  0
   -4.8308   -6.3240    0.0000 C   0  0  0  0  0  0  0  0  0  0  0  0
   -2.9918   -2.7549    0.0000 C   0  0  0  0  0  0  0  0  0  0  0  0
   -3.9955   -1.6402    0.0000 O   0  0  0  0  0  0  0  0  0  0  0  0
    7.9582   -0.9941    0.0000 C   0  0  0  0  0  0  0  0  0  0  0  0
  1  2  1  0
  2  3  1  0
  3  4  2  0
  4  5  1  0
  5  6  2  0
  6  7  1  0
  7  8  2  0
  7  9  1  0
  9 10  1  0
 10 11  2  0
 11 12  1  0
 12 13  2  0
 13 14  1  0
 14 15  1  0
 15 16  2  0
 16 17  1  0
 17 18  2  0
 18 19  1  0
 19 20  2  0
 20 21  1  0
 21 22  2  0
 22 23  1  0
 23 24  2  0
 18 25  1  0
 25 26  2  0
 26 27  1  0
 27 28  2  0
 28 29  1  0
 29 30  2  0
 30 31  1  0
 31 32  2  0
 32 33  1  0
 33 34  2  0
 34 35  1  0
 35 36  2  0
 36 37  1  0
 37 38  2  0
 38 39  1  0
 39 40  2  0
 34 41  1  0
 41 42  2  0
 30 43  1  0
 43 44  2  0
  6 45  1  0
 45  3  1  0
 14 10  1  0
 26 15  1  0
 43 27  1  0
 24 19  1  0
 42 31  1  0
 40 35  1  0
M  END
>  <Title>  (584) 
idAAWLgen7

$$$$

     RDKit          2D

 49 56  0  0  0  0  0  0  0  0999 V2000
    3.2286   -0.0000    0.0000 C   0  0  0  0  0  0  0  0  0  0  0  0
    1.7286    0.0000    0.0000 C   0  0  0  0  0  0  0  0  0  0  0  0
    1.0777    1.3515    0.0000 C   0  0  0  0  0  0  0  0  0  0  0  0
   -0.3846    1.6852    0.0000 C   0  0  0  0  0  0  0  0  0  0  0  0
   -1.5574    0.7500    0.0000 C   0  0  0  0  0  0  0  0  0  0  0  0
   -2.9088    1.4008    0.0000 C   0  0  0  0  0  0  0  0  0  0  0  0
   -4.2297    0.6900    0.0000 N   0  0  0  0  0  0  0  0  0  0  0  0
   -5.3139    1.7266    0.0000 N   0  0  0  0  0  0  0  0  0  0  0  0
   -4.6631    3.0781    0.0000 N   0  0  0  0  0  0  0  0  0  0  0  0
   -3.1767    2.8767    0.0000 N   0  0  0  0  0  0  0  0  0  0  0  0
   -2.1401    3.9609    0.0000 C   0  0  0  0  0  0  0  0  0  0  0  0
   -0.6829    3.6053    0.0000 C   0  0  0  0  0  0  0  0  0  0  0  0
    0.3537    4.6895    0.0000 C   0  0  0  0  0  0  0  0  0  0  0  0
   -0.0669    6.1293    0.0000 C   0  0  0  0  0  0  0  0  0  0  0  0
    0.9697    7.2135    0.0000 C   0  0  0  0  0  0  0  0  0  0  0  0
    2.4269    6.8579    0.0000 C   0  0  0  0  0  0  0  0  0  0  0  0
    3.4635    7.9421    0.0000 C   0  0  0  0  0  0  0  0  0  0  0  0
    3.0429    9.3819    0.0000 C   0  0  0  0  0  0  0  0  0  0  0  0
    4.0795   10.4661    0.0000 C   0  0  0  0  0  0  0  0  0  0  0  0
    5.5367   10.1104    0.0000 C   0  0  0  0  0  0  0  0  0  0  0  0
    6.5733   11.1946    0.0000 C   0  0  0  0  0  0  0  0  0  0  0  0
    6.1527   12.6345    0.0000 C   0  0  0  0  0  0  0  0  0  0  0  0
    4.6954   12.9901    0.0000 C   0  0  0  0  0  0  0  0  0  0  0  0
    3.6588   11.9059    0.0000 C   0  0  0  0  0  0  0  0  0  0  0  0
    1.5856    9.7375    0.0000 C   0  0  0  0  0  0  0  0  0  0  0  0
    0.5491    8.6533    0.0000 C   0  0  0  0  0  0  0  0  0  0  0  0
   -1.5241    6.4849    0.0000 C   0  0  0  0  0  0  0  0  0  0  0  0
   -2.5607    5.4007    0.0000 C   0  0  0  0  0  0  0  0  0  0  0  0
   -4.0180    5.7563    0.0000 C   0  0  0  0  0  0  0  0  0  0  0  0
   -5.1622    4.7864    0.0000 C   0  0  0  0  0  0  0  0  0  0  0  0
   -6.4382    5.5750    0.0000 C   0  0  0  0  0  0  0  0  0  0  0  0
   -6.0826    7.0322    0.0000 C   0  0  0  0  0  0  0  0  0  0  0  0
   -7.0525    8.1765    0.0000 C   0  0  0  0  0  0  0  0  0  0  0  0
   -8.5483    8.0644    0.0000 N   0  0  0  0  0  0  0  0  0  0  0  0
   -9.1171    9.4523    0.0000 N   0  0  0  0  0  0  0  0  0  0  0  0
   -7.9729   10.4222    0.0000 N   0  0  0  0  0  0  0  0  0  0  0  0
   -6.6969    9.6337    0.0000 N   0  0  0  0  0  0  0  0  0  0  0  0
   -5.3089   10.2025    0.0000 C   0  0  0  0  0  0  0  0  0  0  0  0
   -4.1223    9.2849    0.0000 C   0  0  0  0  0  0  0  0  0  0  0  0
   -2.7344    9.8538    0.0000 C   0  0  0  0  0  0  0  0  0  0  0  0
   -2.5330   11.3402    0.0000 C   0  0  0  0  0  0  0  0  0  0  0  0
   -3.7196   12.2578    0.0000 C   0  0  0  0  0  0  0  0  0  0  0  0
   -5.1076   11.6889    0.0000 C   0  0  0  0  0  0  0  0  0  0  0  0
   -4.5868    7.1443    0.0000 C   0  0  0  0  0  0  0  0  0  0  0  0
   -3.7983    8.4203    0.0000 O   0  0  0  0  0  0  0  0  0  0  0  0
   -1.5574   -0.7500    0.0000 N   0  0  0  0  0  0  0  0  0  0  0  0
   -0.3846   -1.6852    0.0000 C   0  0  0  0  0  0  0  0  0  0  0  0
   -0.7184   -3.1476    0.0000 O   0  0  0  0  0  0  0  0  0  0  0  0
    1.0777   -1.3515    0.0000 N   0  0  0  0  0  0  0  0  0  0  0  0
  1  2  1  0
  2  3  2  0
  3  4  1  0
  4  5  2  0
  5  6  1  0
  6  7  2  0
  7  8  1  0
  8  9  2  0
  9 10  1  0
 10 11  1  0
 11 12  2  0
 12 13  1  0
 13 14  2  0
 14 15  1  0
 15 16  2  0
 16 17  1  0
 17 18  2  0
 18 19  1  0
 19 20  2  0
 20 21  1  0
 21 22  2  0
 22 23  1  0
 23 24  2  0
 18 25  1  0
 25 26  2  0
 14 27  1  0
 27 28  2  0
 28 29  1  0
 29 30  2  0
 30 31  1  0
 31 32  2  0
 32 33  1  0
 33 34  2  0
 34 35  1  0
 35 36  2  0
 36 37  1  0
 37 38  1  0
 38 39  2  0
 39 40  1  0
 40 41  2  0
 41 42  1  0
 42 43  2  0
 32 44  1  0
 44 45  2  0
  5 46  1  0
 46 47  1  0
 47 48  2  0
 47 49  1  0
 49  2  1  0
 10  6  1  0
 28 11  1  0
 44 29  1  0
 26 15  1  0
 37 33  1  0
 43 38  1  0
 24 19  1  0
M  END
>  <Title>  (585) 
idAAWMgen7

$$$$

     RDKit          2D

 29 32  0  0  0  0  0  0  0  0999 V2000
   -1.5029   10.1392    0.0000 C   0  0  0  0  0  0  0  0  0  0  0  0
   -1.4494    8.6401    0.0000 C   0  0  0  0  0  0  0  0  0  0  0  0
   -0.1244    7.9370    0.0000 C   0  0  0  0  0  0  0  0  0  0  0  0
   -0.0708    6.4379    0.0000 C   0  0  0  0  0  0  0  0  0  0  0  0
   -1.3423    5.6420    0.0000 C   0  0  0  0  0  0  0  0  0  0  0  0
   -1.2887    4.1430    0.0000 N   0  0  0  0  0  0  0  0  0  0  0  0
   -2.6532    3.5199    0.0000 C   0  0  0  0  0  0  0  0  0  0  0  0
   -3.1774    2.1144    0.0000 C   0  0  0  0  0  0  0  0  0  0  0  0
   -2.5543    0.7500    0.0000 C   0  0  0  0  0  0  0  0  0  0  0  0
   -1.7433    2.0119    0.0000 C   0  0  0  0  0  0  0  0  0  0  0  0
   -0.3789    2.6350    0.0000 C   0  0  0  0  0  0  0  0  0  0  0  0
    1.1059    2.4215    0.0000 C   0  0  0  0  0  0  0  0  0  0  0  0
    0.1167    3.6188    0.0000 C   0  0  0  0  0  0  0  0  0  0  0  0
    1.1388    4.7166    0.0000 O   0  0  0  0  0  0  0  0  0  0  0  0
    2.2395    1.4392    0.0000 C   0  0  0  0  0  0  0  0  0  0  0  0
    3.5014    2.2502    0.0000 C   0  0  0  0  0  0  0  0  0  0  0  0
    4.8346    1.5629    0.0000 C   0  0  0  0  0  0  0  0  0  0  0  0
    6.0965    2.3738    0.0000 C   0  0  0  0  0  0  0  0  0  0  0  0
    6.0251    3.8721    0.0000 C   0  0  0  0  0  0  0  0  0  0  0  0
    4.6919    4.5595    0.0000 C   0  0  0  0  0  0  0  0  0  0  0  0
    3.4300    3.7485    0.0000 C   0  0  0  0  0  0  0  0  0  0  0  0
    2.6621    0.0000    0.0000 C   0  0  0  0  0  0  0  0  0  0  0  0
    2.2395   -1.4392    0.0000 C   0  0  0  0  0  0  0  0  0  0  0  0
    1.1059   -2.4215    0.0000 C   0  0  0  0  0  0  0  0  0  0  0  0
   -0.3789   -2.6350    0.0000 C   0  0  0  0  0  0  0  0  0  0  0  0
   -1.7433   -2.0119    0.0000 N   0  0  0  0  0  0  0  0  0  0  0  0
   -2.5543   -0.7500    0.0000 C   0  0  0  0  0  0  0  0  0  0  0  0
   -2.6673    6.3452    0.0000 N   0  0  0  0  0  0  0  0  0  0  0  0
   -2.7208    7.8442    0.0000 N   0  0  0  0  0  0  0  0  0  0  0  0
  1  2  1  0
  2  3  2  0
  3  4  1  0
  4  5  2  0
  5  6  1  0
  6  7  1  0
  7  8  2  0
  8  9  1  0
  9 10  2  0
 10 11  1  0
 11 12  2  0
 12 13  1  0
 13 14  2  0
 12 15  1  0
 15 16  1  0
 16 17  2  0
 17 18  1  0
 18 19  2  0
 19 20  1  0
 20 21  2  0
 15 22  2  0
 22 23  1  0
 23 24  2  0
 24 25  1  0
 25 26  2  0
 26 27  1  0
  5 28  1  0
 28 29  2  0
 29  2  1  0
 13  6  1  0
 21 16  1  0
 27  9  1  0
M  END
>  <Title>  (586) 
idAAWNgen7

$$$$

     RDKit          2D

 30 34  0  0  0  0  0  0  0  0999 V2000
    2.5505   -9.6733    0.0000 C   0  0  0  0  0  0  0  0  0  0  0  0
    1.2987   -8.8469    0.0000 C   0  0  0  0  0  0  0  0  0  0  0  0
   -0.0429   -9.5179    0.0000 C   0  0  0  0  0  0  0  0  0  0  0  0
   -1.2947   -8.6916    0.0000 C   0  0  0  0  0  0  0  0  0  0  0  0
   -1.2050   -7.1942    0.0000 C   0  0  0  0  0  0  0  0  0  0  0  0
   -2.4569   -6.3679    0.0000 C   0  0  0  0  0  0  0  0  0  0  0  0
   -3.8613   -6.8950    0.0000 N   0  0  0  0  0  0  0  0  0  0  0  0
   -4.7965   -5.7222    0.0000 N   0  0  0  0  0  0  0  0  0  0  0  0
   -3.9701   -4.4704    0.0000 N   0  0  0  0  0  0  0  0  0  0  0  0
   -2.5242   -4.8694    0.0000 N   0  0  0  0  0  0  0  0  0  0  0  0
   -1.3515   -3.9342    0.0000 C   0  0  0  0  0  0  0  0  0  0  0  0
   -0.0000   -4.5850    0.0000 C   0  0  0  0  0  0  0  0  0  0  0  0
    1.3515   -3.9342    0.0000 C   0  0  0  0  0  0  0  0  0  0  0  0
    1.6852   -2.4718    0.0000 C   0  0  0  0  0  0  0  0  0  0  0  0
    3.1476   -2.1380    0.0000 C   0  0  0  0  0  0  0  0  0  0  0  0
    3.7372   -0.7587    0.0000 C   0  0  0  0  0  0  0  0  0  0  0  0
    5.2311   -0.8932    0.0000 C   0  0  0  0  0  0  0  0  0  0  0  0
    5.5649   -2.3556    0.0000 C   0  0  0  0  0  0  0  0  0  0  0  0
    6.9442   -2.9451    0.0000 C   0  0  0  0  0  0  0  0  0  0  0  0
    4.2772   -3.1249    0.0000 C   0  0  0  0  0  0  0  0  0  0  0  0
    4.1428   -4.6189    0.0000 O   0  0  0  0  0  0  0  0  0  0  0  0
    0.7500   -1.2990    0.0000 C   0  0  0  0  0  0  0  0  0  0  0  0
    1.5000    0.0000    0.0000 C   0  0  0  0  0  0  0  0  0  0  0  0
    0.7500    1.2990    0.0000 C   0  0  0  0  0  0  0  0  0  0  0  0
   -0.7500    1.2990    0.0000 C   0  0  0  0  0  0  0  0  0  0  0  0
   -1.5000    0.0000    0.0000 C   0  0  0  0  0  0  0  0  0  0  0  0
   -0.7500   -1.2990    0.0000 C   0  0  0  0  0  0  0  0  0  0  0  0
   -1.6852   -2.4718    0.0000 N   0  0  0  0  0  0  0  0  0  0  0  0
    0.1365   -6.5233    0.0000 C   0  0  0  0  0  0  0  0  0  0  0  0
    1.3884   -7.3496    0.0000 C   0  0  0  0  0  0  0  0  0  0  0  0
  1  2  1  0
  2  3  2  0
  3  4  1  0
  4  5  2  0
  5  6  1  0
  6  7  2  0
  7  8  1  0
  8  9  2  0
  9 10  1  0
 10 11  1  0
 11 12  2  0
 12 13  1  0
 13 14  2  0
 14 15  1  0
 15 16  2  0
 16 17  1  0
 17 18  2  0
 18 19  1  0
 18 20  1  0
 20 21  2  0
 14 22  1  0
 22 23  2  0
 23 24  1  0
 24 25  2  0
 25 26  1  0
 26 27  2  0
 27 28  1  0
  5 29  1  0
 29 30  2  0
 30  2  1  0
 10  6  1  0
 28 11  1  0
 20 15  1  0
 27 22  1  0
M  END
>  <Title>  (587) 
idAAWOgen7

$$$$

     RDKit          2D

 45 52  0  0  0  0  0  0  0  0999 V2000
    7.5646   -0.1148    0.0000 C   0  0  0  0  0  0  0  0  0  0  0  0
    6.0974   -0.4266    0.0000 C   0  0  0  0  0  0  0  0  0  0  0  0
    4.9826    0.5771    0.0000 C   0  0  0  0  0  0  0  0  0  0  0  0
    3.6836   -0.1729    0.0000 C   0  0  0  0  0  0  0  0  0  0  0  0
    3.9955   -1.6402    0.0000 C   0  0  0  0  0  0  0  0  0  0  0  0
    2.9918   -2.7549    0.0000 C   0  0  0  0  0  0  0  0  0  0  0  0
    3.3037   -4.2221    0.0000 N   0  0  0  0  0  0  0  0  0  0  0  0
    2.0046   -4.9721    0.0000 N   0  0  0  0  0  0  0  0  0  0  0  0
    0.8899   -3.9684    0.0000 N   0  0  0  0  0  0  0  0  0  0  0  0
    1.5000   -2.5981    0.0000 N   0  0  0  0  0  0  0  0  0  0  0  0
    0.7500   -1.2990    0.0000 C   0  0  0  0  0  0  0  0  0  0  0  0
    1.5000    0.0000    0.0000 C   0  0  0  0  0  0  0  0  0  0  0  0
    0.7500    1.2990    0.0000 C   0  0  0  0  0  0  0  0  0  0  0  0
   -0.7500    1.2990    0.0000 C   0  0  0  0  0  0  0  0  0  0  0  0
   -1.5000    2.5981    0.0000 C   0  0  0  0  0  0  0  0  0  0  0  0
   -2.9918    2.7549    0.0000 N   0  0  0  0  0  0  0  0  0  0  0  0
   -3.3037    4.2221    0.0000 N   0  0  0  0  0  0  0  0  0  0  0  0
   -2.0046    4.9721    0.0000 N   0  0  0  0  0  0  0  0  0  0  0  0
   -0.8899    3.9684    0.0000 N   0  0  0  0  0  0  0  0  0  0  0  0
    0.5773    4.2803    0.0000 C   0  0  0  0  0  0  0  0  0  0  0  0
    1.5810    3.1655    0.0000 C   0  0  0  0  0  0  0  0  0  0  0  0
    3.0482    3.4774    0.0000 C   0  0  0  0  0  0  0  0  0  0  0  0
    3.5118    4.9040    0.0000 C   0  0  0  0  0  0  0  0  0  0  0  0
    2.5081    6.0187    0.0000 C   0  0  0  0  0  0  0  0  0  0  0  0
    1.0409    5.7068    0.0000 C   0  0  0  0  0  0  0  0  0  0  0  0
   -1.5000    0.0000    0.0000 C   0  0  0  0  0  0  0  0  0  0  0  0
   -0.7500   -1.2990    0.0000 C   0  0  0  0  0  0  0  0  0  0  0  0
   -1.5000   -2.5981    0.0000 C   0  0  0  0  0  0  0  0  0  0  0  0
   -3.0000   -2.5981    0.0000 C   0  0  0  0  0  0  0  0  0  0  0  0
   -3.7500   -3.8971    0.0000 C   0  0  0  0  0  0  0  0  0  0  0  0
   -3.0000   -5.1962    0.0000 C   0  0  0  0  0  0  0  0  0  0  0  0
   -3.7500   -6.4952    0.0000 C   0  0  0  0  0  0  0  0  0  0  0  0
   -3.1399   -7.8655    0.0000 N   0  0  0  0  0  0  0  0  0  0  0  0
   -4.2546   -8.8692    0.0000 N   0  0  0  0  0  0  0  0  0  0  0  0
   -5.5537   -8.1192    0.0000 N   0  0  0  0  0  0  0  0  0  0  0  0
   -5.2418   -6.6520    0.0000 N   0  0  0  0  0  0  0  0  0  0  0  0
   -6.2455   -5.5373    0.0000 C   0  0  0  0  0  0  0  0  0  0  0  0
   -5.7820   -4.1107    0.0000 C   0  0  0  0  0  0  0  0  0  0  0  0
   -6.7856   -2.9960    0.0000 C   0  0  0  0  0  0  0  0  0  0  0  0
   -8.2529   -3.3078    0.0000 C   0  0  0  0  0  0  0  0  0  0  0  0
   -8.7164   -4.7344    0.0000 C   0  0  0  0  0  0  0  0  0  0  0  0
   -7.7127   -5.8491    0.0000 C   0  0  0  0  0  0  0  0  0  0  0  0
   -1.5000   -5.1962    0.0000 N   0  0  0  0  0  0  0  0  0  0  0  0
   -0.7500   -3.8971    0.0000 N   0  0  0  0  0  0  0  0  0  0  0  0
    5.4873   -1.7969    0.0000 C   0  0  0  0  0  0  0  0  0  0  0  0
  1  2  1  0
  2  3  2  0
  3  4  1  0
  4  5  2  0
  5  6  1  0
  6  7  2  0
  7  8  1  0
  8  9  2  0
  9 10  1  0
 10 11  1  0
 11 12  2  0
 12 13  1  0
 13 14  2  0
 14 15  1  0
 15 16  2  0
 16 17  1  0
 17 18  2  0
 18 19  1  0
 19 20  1  0
 20 21  2  0
 21 22  1  0
 22 23  2  0
 23 24  1  0
 24 25  2  0
 14 26  1  0
 26 27  2  0
 27 28  1  0
 28 29  2  0
 29 30  1  0
 30 31  2  0
 31 32  1  0
 32 33  2  0
 33 34  1  0
 34 35  2  0
 35 36  1  0
 36 37  1  0
 37 38  2  0
 38 39  1  0
 39 40  2  0
 40 41  1  0
 41 42  2  0
 31 43  1  0
 43 44  2  0
  5 45  1  0
 45  2  1  0
 10  6  1  0
 27 11  1  0
 44 28  1  0
 19 15  1  0
 25 20  1  0
 36 32  1  0
 42 37  1  0
M  END
>  <Title>  (588) 
idAAWPgen7

$$$$

     RDKit          2D

 11 11  0  0  0  0  0  0  0  0999 V2000
    4.4429   -1.2990    0.0000 C   0  0  0  0  0  0  0  0  0  0  0  0
    3.6929    0.0000    0.0000 O   0  0  0  0  0  0  0  0  0  0  0  0
    2.1929    0.0000    0.0000 C   0  0  0  0  0  0  0  0  0  0  0  0
    1.6798    1.4095    0.0000 C   0  0  0  0  0  0  0  0  0  0  0  0
    0.3808    2.1595    0.0000 C   0  0  0  0  0  0  0  0  0  0  0  0
   -1.0964    1.8991    0.0000 C   0  0  0  0  0  0  0  0  0  0  0  0
   -2.0606    0.7500    0.0000 C   0  0  0  0  0  0  0  0  0  0  0  0
   -2.0606   -0.7500    0.0000 C   0  0  0  0  0  0  0  0  0  0  0  0
   -1.0964   -1.8991    0.0000 C   0  0  0  0  0  0  0  0  0  0  0  0
    0.3808   -2.1595    0.0000 C   0  0  0  0  0  0  0  0  0  0  0  0
    1.6798   -1.4095    0.0000 C   0  0  0  0  0  0  0  0  0  0  0  0
  1  2  1  0
  2  3  1  0
  3  4  1  0
  4  5  1  0
  5  6  1  0
  6  7  1  0
  7  8  1  0
  8  9  1  0
  9 10  1  0
 10 11  1  0
 11  3  1  0
M  END
>  <Title>  (589) 
idAAWQgen7

$$$$

     RDKit          2D

 55 62  0  0  0  0  0  0  0  0999 V2000
   15.1607  -12.5426    0.0000 C   0  0  0  0  0  0  0  0  0  0  0  0
   13.6689  -12.6994    0.0000 C   0  0  0  0  0  0  0  0  0  0  0  0
   13.0588  -14.0697    0.0000 O   0  0  0  0  0  0  0  0  0  0  0  0
   12.7872  -11.4858    0.0000 O   0  0  0  0  0  0  0  0  0  0  0  0
   11.2955  -11.6426    0.0000 C   0  0  0  0  0  0  0  0  0  0  0  0
   10.6854  -13.0130    0.0000 C   0  0  0  0  0  0  0  0  0  0  0  0
    9.1936  -13.1698    0.0000 C   0  0  0  0  0  0  0  0  0  0  0  0
    8.3119  -11.9562    0.0000 C   0  0  0  0  0  0  0  0  0  0  0  0
    6.8201  -12.1130    0.0000 C   0  0  0  0  0  0  0  0  0  0  0  0
    6.2100  -13.4833    0.0000 O   0  0  0  0  0  0  0  0  0  0  0  0
    5.9384  -10.8995    0.0000 N   0  0  0  0  0  0  0  0  0  0  0  0
    4.4467  -11.0563    0.0000 C   0  0  0  0  0  0  0  0  0  0  0  0
    3.6967  -12.3553    0.0000 N   0  0  0  0  0  0  0  0  0  0  0  0
    2.2294  -12.0435    0.0000 N   0  0  0  0  0  0  0  0  0  0  0  0
    2.0726  -10.5517    0.0000 N   0  0  0  0  0  0  0  0  0  0  0  0
    3.4430   -9.9416    0.0000 N   0  0  0  0  0  0  0  0  0  0  0  0
    3.7548   -8.4743    0.0000 C   0  0  0  0  0  0  0  0  0  0  0  0
    5.1814   -8.0108    0.0000 C   0  0  0  0  0  0  0  0  0  0  0  0
    5.4933   -6.5436    0.0000 C   0  0  0  0  0  0  0  0  0  0  0  0
    4.3786   -5.5399    0.0000 C   0  0  0  0  0  0  0  0  0  0  0  0
    4.6904   -4.0727    0.0000 C   0  0  0  0  0  0  0  0  0  0  0  0
    3.5757   -3.0690    0.0000 C   0  0  0  0  0  0  0  0  0  0  0  0
    3.8876   -1.6018    0.0000 C   0  0  0  0  0  0  0  0  0  0  0  0
    5.3142   -1.1382    0.0000 C   0  0  0  0  0  0  0  0  0  0  0  0
    6.4289   -2.1419    0.0000 C   0  0  0  0  0  0  0  0  0  0  0  0
    6.1170   -3.6092    0.0000 C   0  0  0  0  0  0  0  0  0  0  0  0
    2.9520   -6.0034    0.0000 C   0  0  0  0  0  0  0  0  0  0  0  0
    2.6401   -7.4707    0.0000 C   0  0  0  0  0  0  0  0  0  0  0  0
    1.2135   -7.9342    0.0000 C   0  0  0  0  0  0  0  0  0  0  0  0
    0.7500   -9.3608    0.0000 N   0  0  0  0  0  0  0  0  0  0  0  0
   -0.7500   -9.3608    0.0000 N   0  0  0  0  0  0  0  0  0  0  0  0
   -1.2135   -7.9342    0.0000 N   0  0  0  0  0  0  0  0  0  0  0  0
   -0.0000   -7.0525    0.0000 N   0  0  0  0  0  0  0  0  0  0  0  0
    0.0000   -5.5525    0.0000 C   0  0  0  0  0  0  0  0  0  0  0  0
    1.4095   -5.0395    0.0000 C   0  0  0  0  0  0  0  0  0  0  0  0
    2.1595   -3.7404    0.0000 C   0  0  0  0  0  0  0  0  0  0  0  0
    1.8991   -2.2632    0.0000 C   0  0  0  0  0  0  0  0  0  0  0  0
    2.9780   -1.2212    0.0000 C   0  0  0  0  0  0  0  0  0  0  0  0
    0.7500   -1.2990    0.0000 C   0  0  0  0  0  0  0  0  0  0  0  0
    1.5000   -0.0000    0.0000 C   0  0  0  0  0  0  0  0  0  0  0  0
    0.7500    1.2990    0.0000 C   0  0  0  0  0  0  0  0  0  0  0  0
   -0.7500    1.2990    0.0000 C   0  0  0  0  0  0  0  0  0  0  0  0
   -1.5000   -0.0000    0.0000 C   0  0  0  0  0  0  0  0  0  0  0  0
   -0.7500   -1.2990    0.0000 C   0  0  0  0  0  0  0  0  0  0  0  0
   -1.8991   -2.2632    0.0000 C   0  0  0  0  0  0  0  0  0  0  0  0
   -3.0481   -1.2990    0.0000 C   0  0  0  0  0  0  0  0  0  0  0  0
   -4.4577   -1.8121    0.0000 C   0  0  0  0  0  0  0  0  0  0  0  0
   -4.7181   -3.2893    0.0000 C   0  0  0  0  0  0  0  0  0  0  0  0
   -3.5691   -4.2535    0.0000 C   0  0  0  0  0  0  0  0  0  0  0  0
   -2.1595   -3.7404    0.0000 C   0  0  0  0  0  0  0  0  0  0  0  0
   -1.4095   -5.0395    0.0000 C   0  0  0  0  0  0  0  0  0  0  0  0
   -2.3737   -6.1885    0.0000 O   0  0  0  0  0  0  0  0  0  0  0  0
    8.9220  -10.5859    0.0000 C   0  0  0  0  0  0  0  0  0  0  0  0
    8.0403   -9.3724    0.0000 O   0  0  0  0  0  0  0  0  0  0  0  0
   10.4138  -10.4291    0.0000 N   0  0  0  0  0  0  0  0  0  0  0  0
  1  2  1  0
  2  3  2  0
  2  4  1  0
  4  5  1  0
  5  6  2  0
  6  7  1  0
  7  8  2  0
  8  9  1  0
  9 10  2  0
  9 11  1  0
 11 12  1  0
 12 13  2  0
 13 14  1  0
 14 15  2  0
 15 16  1  0
 16 17  1  0
 17 18  2  0
 18 19  1  0
 19 20  2  0
 20 21  1  0
 21 22  2  0
 22 23  1  0
 23 24  2  0
 24 25  1  0
 25 26  2  0
 20 27  1  0
 27 28  2  0
 28 29  1  0
 29 30  2  0
 30 31  1  0
 31 32  2  0
 32 33  1  0
 33 34  1  0
 34 35  2  0
 35 36  1  0
 36 37  2  0
 37 38  1  0
 37 39  1  0
 39 40  2  0
 40 41  1  0
 41 42  2  0
 42 43  1  0
 43 44  2  0
 44 45  1  0
 45 46  2  0
 46 47  1  0
 47 48  2  0
 48 49  1  0
 49 50  2  0
 50 51  1  0
 51 52  2  0
  8 53  1  0
 53 54  2  0
 53 55  1  0
 55  5  1  0
 16 12  1  0
 28 17  1  0
 33 29  1  0
 51 34  1  0
 26 21  1  0
 44 39  1  0
 50 45  1  0
M  END
>  <Title>  (590) 
idAAWRgen7

$$$$

     RDKit          2D

 31 34  0  0  0  0  0  0  0  0999 V2000
    3.0000    0.0000    0.0000 C   0  0  0  0  0  0  0  0  0  0  0  0
    1.5000    0.0000    0.0000 C   0  0  0  0  0  0  0  0  0  0  0  0
    0.7500   -1.2990    0.0000 C   0  0  0  0  0  0  0  0  0  0  0  0
   -0.7500   -1.2990    0.0000 C   0  0  0  0  0  0  0  0  0  0  0  0
   -1.5000    0.0000    0.0000 C   0  0  0  0  0  0  0  0  0  0  0  0
   -3.0000    0.0000    0.0000 C   0  0  0  0  0  0  0  0  0  0  0  0
   -3.7500   -1.2990    0.0000 O   0  0  0  0  0  0  0  0  0  0  0  0
   -3.7500    1.2990    0.0000 N   0  0  0  0  0  0  0  0  0  0  0  0
   -5.2500    1.2990    0.0000 C   0  0  0  0  0  0  0  0  0  0  0  0
   -6.1317    0.0855    0.0000 N   0  0  0  0  0  0  0  0  0  0  0  0
   -7.5583    0.5490    0.0000 N   0  0  0  0  0  0  0  0  0  0  0  0
   -7.5583    2.0490    0.0000 N   0  0  0  0  0  0  0  0  0  0  0  0
   -6.1317    2.5126    0.0000 N   0  0  0  0  0  0  0  0  0  0  0  0
   -5.6682    3.9391    0.0000 C   0  0  0  0  0  0  0  0  0  0  0  0
   -4.2009    4.2510    0.0000 C   0  0  0  0  0  0  0  0  0  0  0  0
   -3.7374    5.6776    0.0000 C   0  0  0  0  0  0  0  0  0  0  0  0
   -4.7411    6.7923    0.0000 C   0  0  0  0  0  0  0  0  0  0  0  0
   -4.2776    8.2189    0.0000 C   0  0  0  0  0  0  0  0  0  0  0  0
   -5.2813    9.3336    0.0000 O   0  0  0  0  0  0  0  0  0  0  0  0
   -2.8104    8.5308    0.0000 N   0  0  0  0  0  0  0  0  0  0  0  0
   -2.3468    9.9574    0.0000 C   0  0  0  0  0  0  0  0  0  0  0  0
   -0.8796   10.2692    0.0000 C   0  0  0  0  0  0  0  0  0  0  0  0
   -0.4161   11.6958    0.0000 C   0  0  0  0  0  0  0  0  0  0  0  0
   -1.4198   12.8105    0.0000 C   0  0  0  0  0  0  0  0  0  0  0  0
   -2.8870   12.4987    0.0000 C   0  0  0  0  0  0  0  0  0  0  0  0
   -3.3505   11.0721    0.0000 C   0  0  0  0  0  0  0  0  0  0  0  0
   -6.2083    6.4805    0.0000 C   0  0  0  0  0  0  0  0  0  0  0  0
   -6.6718    5.0539    0.0000 C   0  0  0  0  0  0  0  0  0  0  0  0
   -0.7500    1.2990    0.0000 C   0  0  0  0  0  0  0  0  0  0  0  0
   -1.5000    2.5981    0.0000 O   0  0  0  0  0  0  0  0  0  0  0  0
    0.7500    1.2990    0.0000 N   0  0  0  0  0  0  0  0  0  0  0  0
  1  2  1  0
  2  3  2  0
  3  4  1  0
  4  5  2  0
  5  6  1  0
  6  7  2  0
  6  8  1  0
  8  9  1  0
  9 10  2  0
 10 11  1  0
 11 12  2  0
 12 13  1  0
 13 14  1  0
 14 15  2  0
 15 16  1  0
 16 17  2  0
 17 18  1  0
 18 19  2  0
 18 20  1  0
 20 21  1  0
 21 22  2  0
 22 23  1  0
 23 24  2  0
 24 25  1  0
 25 26  2  0
 17 27  1  0
 27 28  2  0
  5 29  1  0
 29 30  2  0
 29 31  1  0
 31  2  1  0
 13  9  1  0
 28 14  1  0
 26 21  1  0
M  END
>  <Title>  (591) 
idAAWSgen7

$$$$

     RDKit          2D

 14 15  0  0  0  0  0  0  0  0999 V2000
    2.7516    6.1053    0.0000 C   0  0  0  0  0  0  0  0  0  0  0  0
    1.8836    4.8820    0.0000 C   0  0  0  0  0  0  0  0  0  0  0  0
    2.6816    3.6119    0.0000 C   0  0  0  0  0  0  0  0  0  0  0  0
    2.3478    2.1495    0.0000 C   0  0  0  0  0  0  0  0  0  0  0  0
    1.0777    1.3515    0.0000 C   0  0  0  0  0  0  0  0  0  0  0  0
    1.7286    0.0000    0.0000 C   0  0  0  0  0  0  0  0  0  0  0  0
    1.0777   -1.3515    0.0000 C   0  0  0  0  0  0  0  0  0  0  0  0
   -0.3846   -1.6852    0.0000 C   0  0  0  0  0  0  0  0  0  0  0  0
   -1.5574   -0.7500    0.0000 C   0  0  0  0  0  0  0  0  0  0  0  0
   -1.5574    0.7500    0.0000 C   0  0  0  0  0  0  0  0  0  0  0  0
   -0.3846    1.6852    0.0000 C   0  0  0  0  0  0  0  0  0  0  0  0
   -1.1827    2.9553    0.0000 C   0  0  0  0  0  0  0  0  0  0  0  0
   -0.8489    4.4177    0.0000 C   0  0  0  0  0  0  0  0  0  0  0  0
    0.4212    5.2158    0.0000 C   0  0  0  0  0  0  0  0  0  0  0  0
  1  2  1  0
  2  3  2  0
  3  4  1  0
  4  5  2  0
  5  6  1  0
  6  7  2  0
  7  8  1  0
  8  9  2  0
  9 10  1  0
 10 11  2  0
 11 12  1  0
 12 13  1  0
 13 14  1  0
 14  2  1  0
 11  5  1  0
M  END
>  <Title>  (592) 
idAAWTgen7

$$$$

     RDKit          2D

 33 37  0  0  0  0  0  0  0  0999 V2000
    3.0000    0.0000    0.0000 C   0  0  0  0  0  0  0  0  0  0  0  0
    1.5000    0.0000    0.0000 C   0  0  0  0  0  0  0  0  0  0  0  0
    0.7500   -1.2990    0.0000 C   0  0  0  0  0  0  0  0  0  0  0  0
   -0.7500   -1.2990    0.0000 C   0  0  0  0  0  0  0  0  0  0  0  0
   -1.5000    0.0000    0.0000 C   0  0  0  0  0  0  0  0  0  0  0  0
   -3.0000    0.0000    0.0000 C   0  0  0  0  0  0  0  0  0  0  0  0
   -3.7500   -1.2990    0.0000 O   0  0  0  0  0  0  0  0  0  0  0  0
   -3.7500    1.2990    0.0000 N   0  0  0  0  0  0  0  0  0  0  0  0
   -5.2500    1.2990    0.0000 C   0  0  0  0  0  0  0  0  0  0  0  0
   -6.1317    0.0855    0.0000 N   0  0  0  0  0  0  0  0  0  0  0  0
   -7.5583    0.5490    0.0000 N   0  0  0  0  0  0  0  0  0  0  0  0
   -7.5583    2.0490    0.0000 N   0  0  0  0  0  0  0  0  0  0  0  0
   -6.1317    2.5126    0.0000 N   0  0  0  0  0  0  0  0  0  0  0  0
   -5.6682    3.9391    0.0000 C   0  0  0  0  0  0  0  0  0  0  0  0
   -4.2009    4.2510    0.0000 C   0  0  0  0  0  0  0  0  0  0  0  0
   -3.7374    5.6776    0.0000 C   0  0  0  0  0  0  0  0  0  0  0  0
   -4.7411    6.7923    0.0000 C   0  0  0  0  0  0  0  0  0  0  0  0
   -4.2776    8.2189    0.0000 C   0  0  0  0  0  0  0  0  0  0  0  0
   -5.1593    9.4324    0.0000 N   0  0  0  0  0  0  0  0  0  0  0  0
   -4.2776   10.6460    0.0000 N   0  0  0  0  0  0  0  0  0  0  0  0
   -2.8510   10.1824    0.0000 N   0  0  0  0  0  0  0  0  0  0  0  0
   -2.8510    8.6824    0.0000 N   0  0  0  0  0  0  0  0  0  0  0  0
   -1.6375    7.8008    0.0000 C   0  0  0  0  0  0  0  0  0  0  0  0
   -1.7943    6.3090    0.0000 C   0  0  0  0  0  0  0  0  0  0  0  0
   -0.5807    5.4273    0.0000 C   0  0  0  0  0  0  0  0  0  0  0  0
    0.7896    6.0374    0.0000 C   0  0  0  0  0  0  0  0  0  0  0  0
    0.9464    7.5292    0.0000 C   0  0  0  0  0  0  0  0  0  0  0  0
   -0.2671    8.4109    0.0000 C   0  0  0  0  0  0  0  0  0  0  0  0
   -6.2083    6.4805    0.0000 C   0  0  0  0  0  0  0  0  0  0  0  0
   -6.6718    5.0539    0.0000 C   0  0  0  0  0  0  0  0  0  0  0  0
   -0.7500    1.2990    0.0000 C   0  0  0  0  0  0  0  0  0  0  0  0
   -1.5000    2.5981    0.0000 O   0  0  0  0  0  0  0  0  0  0  0  0
    0.7500    1.2990    0.0000 N   0  0  0  0  0  0  0  0  0  0  0  0
  1  2  1  0
  2  3  2  0
  3  4  1  0
  4  5  2  0
  5  6  1  0
  6  7  2  0
  6  8  1  0
  8  9  1  0
  9 10  2  0
 10 11  1  0
 11 12  2  0
 12 13  1  0
 13 14  1  0
 14 15  2  0
 15 16  1  0
 16 17  2  0
 17 18  1  0
 18 19  2  0
 19 20  1  0
 20 21  2  0
 21 22  1  0
 22 23  1  0
 23 24  2  0
 24 25  1  0
 25 26  2  0
 26 27  1  0
 27 28  2  0
 17 29  1  0
 29 30  2  0
  5 31  1  0
 31 32  2  0
 31 33  1  0
 33  2  1  0
 13  9  1  0
 30 14  1  0
 22 18  1  0
 28 23  1  0
M  END
>  <Title>  (593) 
idAAWUgen7

$$$$

     RDKit          2D

  8  8  0  0  0  0  0  0  0  0999 V2000
    3.0000    0.0000    0.0000 C   0  0  0  0  0  0  0  0  0  0  0  0
    1.5000    0.0000    0.0000 C   0  0  0  0  0  0  0  0  0  0  0  0
    0.7500   -1.2990    0.0000 C   0  0  0  0  0  0  0  0  0  0  0  0
   -0.7500   -1.2990    0.0000 C   0  0  0  0  0  0  0  0  0  0  0  0
   -1.5000    0.0000    0.0000 C   0  0  0  0  0  0  0  0  0  0  0  0
   -3.0000    0.0000    0.0000 C   0  0  0  0  0  0  0  0  0  0  0  0
   -0.7500    1.2990    0.0000 C   0  0  0  0  0  0  0  0  0  0  0  0
    0.7500    1.2990    0.0000 C   0  0  0  0  0  0  0  0  0  0  0  0
  1  2  1  0
  2  3  2  0
  3  4  1  0
  4  5  2  0
  5  6  1  0
  5  7  1  0
  7  8  2  0
  8  2  1  0
M  END
>  <Title>  (594) 
idAAWVgen7

$$$$

     RDKit          2D

 14 14  0  0  0  0  0  0  0  0999 V2000
    6.1771   -1.2990    0.0000 C   0  0  0  0  0  0  0  0  0  0  0  0
    4.6771   -1.2990    0.0000 C   0  0  0  0  0  0  0  0  0  0  0  0
    3.9271   -2.5981    0.0000 O   0  0  0  0  0  0  0  0  0  0  0  0
    3.9271    0.0000    0.0000 N   0  0  0  0  0  0  0  0  0  0  0  0
    2.4271    0.0000    0.0000 C   0  0  0  0  0  0  0  0  0  0  0  0
    1.9635   -1.4266    0.0000 C   0  0  0  0  0  0  0  0  0  0  0  0
    0.7500   -2.3083    0.0000 C   0  0  0  0  0  0  0  0  0  0  0  0
   -0.7500   -2.3083    0.0000 C   0  0  0  0  0  0  0  0  0  0  0  0
   -1.9635   -1.4266    0.0000 C   0  0  0  0  0  0  0  0  0  0  0  0
   -2.4271    0.0000    0.0000 C   0  0  0  0  0  0  0  0  0  0  0  0
   -1.9635    1.4266    0.0000 C   0  0  0  0  0  0  0  0  0  0  0  0
   -0.7500    2.3083    0.0000 C   0  0  0  0  0  0  0  0  0  0  0  0
    0.7500    2.3083    0.0000 C   0  0  0  0  0  0  0  0  0  0  0  0
    1.9635    1.4266    0.0000 C   0  0  0  0  0  0  0  0  0  0  0  0
  1  2  1  0
  2  3  2  0
  2  4  1  0
  4  5  1  0
  5  6  2  0
  6  7  1  0
  7  8  2  0
  8  9  1  0
  9 10  2  0
 10 11  1  0
 11 12  2  0
 12 13  1  0
 13 14  2  0
 14  5  1  0
M  END
>  <Title>  (595) 
idAAWWgen7

$$$$

     RDKit          2D

 30 34  0  0  0  0  0  0  0  0999 V2000
    3.0000    0.0000    0.0000 C   0  0  0  0  0  0  0  0  0  0  0  0
    1.5000    0.0000    0.0000 C   0  0  0  0  0  0  0  0  0  0  0  0
    0.7500   -1.2990    0.0000 C   0  0  0  0  0  0  0  0  0  0  0  0
   -0.7500   -1.2990    0.0000 C   0  0  0  0  0  0  0  0  0  0  0  0
   -1.5000    0.0000    0.0000 C   0  0  0  0  0  0  0  0  0  0  0  0
   -3.0000    0.0000    0.0000 N   0  0  0  0  0  0  0  0  0  0  0  0
   -3.7500    1.2990    0.0000 N   0  0  0  0  0  0  0  0  0  0  0  0
   -5.2500    1.2990    0.0000 N   0  0  0  0  0  0  0  0  0  0  0  0
   -6.0000    0.0000    0.0000 N   0  0  0  0  0  0  0  0  0  0  0  0
   -5.2500   -1.2990    0.0000 N   0  0  0  0  0  0  0  0  0  0  0  0
   -3.7500   -1.2990    0.0000 N   0  0  0  0  0  0  0  0  0  0  0  0
   -3.0000   -2.5981    0.0000 C   0  0  0  0  0  0  0  0  0  0  0  0
   -3.7500   -3.8971    0.0000 C   0  0  0  0  0  0  0  0  0  0  0  0
   -3.0000   -5.1962    0.0000 C   0  0  0  0  0  0  0  0  0  0  0  0
   -1.5000   -5.1962    0.0000 C   0  0  0  0  0  0  0  0  0  0  0  0
   -0.7500   -6.4952    0.0000 C   0  0  0  0  0  0  0  0  0  0  0  0
    0.7418   -6.6520    0.0000 N   0  0  0  0  0  0  0  0  0  0  0  0
    1.0537   -8.1192    0.0000 N   0  0  0  0  0  0  0  0  0  0  0  0
   -0.2454   -8.8692    0.0000 N   0  0  0  0  0  0  0  0  0  0  0  0
   -1.3601   -7.8655    0.0000 N   0  0  0  0  0  0  0  0  0  0  0  0
   -2.8273   -8.1774    0.0000 C   0  0  0  0  0  0  0  0  0  0  0  0
   -3.8310   -7.0627    0.0000 C   0  0  0  0  0  0  0  0  0  0  0  0
   -5.2982   -7.3745    0.0000 C   0  0  0  0  0  0  0  0  0  0  0  0
   -5.7618   -8.8011    0.0000 C   0  0  0  0  0  0  0  0  0  0  0  0
   -4.7581   -9.9158    0.0000 C   0  0  0  0  0  0  0  0  0  0  0  0
   -3.2909   -9.6040    0.0000 C   0  0  0  0  0  0  0  0  0  0  0  0
   -0.7500   -3.8971    0.0000 C   0  0  0  0  0  0  0  0  0  0  0  0
   -1.5000   -2.5981    0.0000 C   0  0  0  0  0  0  0  0  0  0  0  0
   -0.7500    1.2990    0.0000 C   0  0  0  0  0  0  0  0  0  0  0  0
    0.7500    1.2990    0.0000 C   0  0  0  0  0  0  0  0  0  0  0  0
  1  2  1  0
  2  3  2  0
  3  4  1  0
  4  5  2  0
  5  6  1  0
  6  7  1  0
  7  8  2  0
  8  9  1  0
  9 10  2  0
 10 11  1  0
 11 12  1  0
 12 13  2  0
 13 14  1  0
 14 15  2  0
 15 16  1  0
 16 17  2  0
 17 18  1  0
 18 19  2  0
 19 20  1  0
 20 21  1  0
 21 22  2  0
 22 23  1  0
 23 24  2  0
 24 25  1  0
 25 26  2  0
 15 27  1  0
 27 28  2  0
  5 29  1  0
 29 30  2  0
 30  2  1  0
 11  6  1  0
 28 12  1  0
 20 16  1  0
 26 21  1  0
M  END
>  <Title>  (596) 
idAAWXgen7

$$$$

     RDKit          2D

 33 37  0  0  0  0  0  0  0  0999 V2000
    9.4775    2.5068    0.0000 C   0  0  0  0  0  0  0  0  0  0  0  0
    8.4738    1.3921    0.0000 C   0  0  0  0  0  0  0  0  0  0  0  0
    8.9373   -0.0345    0.0000 C   0  0  0  0  0  0  0  0  0  0  0  0
    7.9336   -1.1492    0.0000 C   0  0  0  0  0  0  0  0  0  0  0  0
    6.4664   -0.8373    0.0000 C   0  0  0  0  0  0  0  0  0  0  0  0
    5.4627   -1.9520    0.0000 C   0  0  0  0  0  0  0  0  0  0  0  0
    5.9262   -3.3786    0.0000 O   0  0  0  0  0  0  0  0  0  0  0  0
    3.9955   -1.6402    0.0000 N   0  0  0  0  0  0  0  0  0  0  0  0
    2.9918   -2.7549    0.0000 C   0  0  0  0  0  0  0  0  0  0  0  0
    3.3037   -4.2221    0.0000 N   0  0  0  0  0  0  0  0  0  0  0  0
    2.0046   -4.9721    0.0000 N   0  0  0  0  0  0  0  0  0  0  0  0
    0.8899   -3.9684    0.0000 N   0  0  0  0  0  0  0  0  0  0  0  0
    1.5000   -2.5981    0.0000 N   0  0  0  0  0  0  0  0  0  0  0  0
    0.7500   -1.2990    0.0000 C   0  0  0  0  0  0  0  0  0  0  0  0
    1.5000    0.0000    0.0000 C   0  0  0  0  0  0  0  0  0  0  0  0
    0.7500    1.2990    0.0000 C   0  0  0  0  0  0  0  0  0  0  0  0
   -0.7500    1.2990    0.0000 C   0  0  0  0  0  0  0  0  0  0  0  0
   -1.5000    0.0000    0.0000 C   0  0  0  0  0  0  0  0  0  0  0  0
   -0.7500   -1.2990    0.0000 C   0  0  0  0  0  0  0  0  0  0  0  0
   -2.1766   -0.8355    0.0000 C   0  0  0  0  0  0  0  0  0  0  0  0
   -3.3901   -1.7172    0.0000 O   0  0  0  0  0  0  0  0  0  0  0  0
   -2.1766    0.6645    0.0000 C   0  0  0  0  0  0  0  0  0  0  0  0
   -3.3901    1.5462    0.0000 N   0  0  0  0  0  0  0  0  0  0  0  0
   -3.2333    3.0379    0.0000 C   0  0  0  0  0  0  0  0  0  0  0  0
   -4.4468    3.9196    0.0000 C   0  0  0  0  0  0  0  0  0  0  0  0
   -4.2901    5.4114    0.0000 C   0  0  0  0  0  0  0  0  0  0  0  0
   -5.5036    6.2931    0.0000 C   0  0  0  0  0  0  0  0  0  0  0  0
   -6.8739    5.6830    0.0000 C   0  0  0  0  0  0  0  0  0  0  0  0
   -7.0307    4.1912    0.0000 C   0  0  0  0  0  0  0  0  0  0  0  0
   -5.8172    3.3095    0.0000 C   0  0  0  0  0  0  0  0  0  0  0  0
    6.0029    0.5893    0.0000 C   0  0  0  0  0  0  0  0  0  0  0  0
    4.5356    0.9012    0.0000 O   0  0  0  0  0  0  0  0  0  0  0  0
    7.0066    1.7040    0.0000 N   0  0  0  0  0  0  0  0  0  0  0  0
  1  2  1  0
  2  3  2  0
  3  4  1  0
  4  5  2  0
  5  6  1  0
  6  7  2  0
  6  8  1  0
  8  9  1  0
  9 10  2  0
 10 11  1  0
 11 12  2  0
 12 13  1  0
 13 14  1  0
 14 15  2  0
 15 16  1  0
 16 17  2  0
 17 18  1  0
 18 19  2  0
 19 20  1  0
 20 21  2  0
 20 22  1  0
 22 23  2  3
 23 24  1  0
 24 25  2  3
 25 26  1  0
 26 27  1  0
 27 28  1  0
 28 29  1  0
 29 30  1  0
  5 31  1  0
 31 32  2  0
 31 33  1  0
 33  2  1  0
 13  9  1  0
 19 14  1  0
 30 25  1  0
 22 17  1  0
M  END
>  <Title>  (597) 
idAAWYgen7

$$$$

     RDKit          2D

 19 21  0  0  0  0  0  0  0  0999 V2000
    3.9786   -1.2990    0.0000 C   0  0  0  0  0  0  0  0  0  0  0  0
    3.2286   -0.0000    0.0000 O   0  0  0  0  0  0  0  0  0  0  0  0
    1.7286    0.0000    0.0000 C   0  0  0  0  0  0  0  0  0  0  0  0
    1.0777    1.3515    0.0000 C   0  0  0  0  0  0  0  0  0  0  0  0
   -0.3846    1.6852    0.0000 C   0  0  0  0  0  0  0  0  0  0  0  0
   -1.5574    0.7500    0.0000 C   0  0  0  0  0  0  0  0  0  0  0  0
   -1.5574   -0.7500    0.0000 C   0  0  0  0  0  0  0  0  0  0  0  0
   -2.9537   -1.2980    0.0000 C   0  0  0  0  0  0  0  0  0  0  0  0
   -3.1773   -2.7813    0.0000 C   0  0  0  0  0  0  0  0  0  0  0  0
   -2.0045   -3.7165    0.0000 C   0  0  0  0  0  0  0  0  0  0  0  0
   -2.2281   -5.1997    0.0000 C   0  0  0  0  0  0  0  0  0  0  0  0
   -3.6244   -5.7478    0.0000 C   0  0  0  0  0  0  0  0  0  0  0  0
   -3.8480   -7.2310    0.0000 C   0  0  0  0  0  0  0  0  0  0  0  0
   -2.6752   -8.1662    0.0000 C   0  0  0  0  0  0  0  0  0  0  0  0
   -1.2789   -7.6182    0.0000 C   0  0  0  0  0  0  0  0  0  0  0  0
   -1.0553   -6.1350    0.0000 C   0  0  0  0  0  0  0  0  0  0  0  0
   -0.6082   -3.1685    0.0000 C   0  0  0  0  0  0  0  0  0  0  0  0
   -0.3846   -1.6852    0.0000 C   0  0  0  0  0  0  0  0  0  0  0  0
    1.0777   -1.3515    0.0000 C   0  0  0  0  0  0  0  0  0  0  0  0
  1  2  1  0
  2  3  1  0
  3  4  2  0
  4  5  1  0
  5  6  1  0
  6  7  1  0
  7  8  2  0
  8  9  1  0
  9 10  2  0
 10 11  1  0
 11 12  2  0
 12 13  1  0
 13 14  2  0
 14 15  1  0
 15 16  2  0
 10 17  1  0
 17 18  2  0
 18 19  1  0
 19  3  1  0
 18  7  1  0
 16 11  1  0
M  END
>  <Title>  (598) 
idAAWZgen7

$$$$

     RDKit          2D

 32 36  0  0  0  0  0  0  0  0999 V2000
    3.0000    0.0000    0.0000 C   0  0  0  0  0  0  0  0  0  0  0  0
    1.5000    0.0000    0.0000 C   0  0  0  0  0  0  0  0  0  0  0  0
    0.7500   -1.2990    0.0000 C   0  0  0  0  0  0  0  0  0  0  0  0
   -0.7500   -1.2990    0.0000 C   0  0  0  0  0  0  0  0  0  0  0  0
   -1.5000    0.0000    0.0000 C   0  0  0  0  0  0  0  0  0  0  0  0
   -3.0000    0.0000    0.0000 C   0  0  0  0  0  0  0  0  0  0  0  0
   -3.8817   -1.2135    0.0000 N   0  0  0  0  0  0  0  0  0  0  0  0
   -5.3083   -0.7500    0.0000 N   0  0  0  0  0  0  0  0  0  0  0  0
   -5.3083    0.7500    0.0000 N   0  0  0  0  0  0  0  0  0  0  0  0
   -3.8817    1.2135    0.0000 N   0  0  0  0  0  0  0  0  0  0  0  0
   -3.4182    2.6401    0.0000 C   0  0  0  0  0  0  0  0  0  0  0  0
   -1.9509    2.9520    0.0000 C   0  0  0  0  0  0  0  0  0  0  0  0
   -1.4874    4.3786    0.0000 C   0  0  0  0  0  0  0  0  0  0  0  0
   -2.4911    5.4933    0.0000 C   0  0  0  0  0  0  0  0  0  0  0  0
   -2.0276    6.9199    0.0000 C   0  0  0  0  0  0  0  0  0  0  0  0
   -0.5604    7.2317    0.0000 C   0  0  0  0  0  0  0  0  0  0  0  0
   -0.0968    8.6583    0.0000 C   0  0  0  0  0  0  0  0  0  0  0  0
   -1.1005    9.7730    0.0000 C   0  0  0  0  0  0  0  0  0  0  0  0
   -2.5677    9.4612    0.0000 C   0  0  0  0  0  0  0  0  0  0  0  0
   -3.0313    8.0346    0.0000 C   0  0  0  0  0  0  0  0  0  0  0  0
   -3.9583    5.1814    0.0000 C   0  0  0  0  0  0  0  0  0  0  0  0
   -4.4218    3.7548    0.0000 C   0  0  0  0  0  0  0  0  0  0  0  0
   -5.8891    3.4430    0.0000 C   0  0  0  0  0  0  0  0  0  0  0  0
   -6.8928    4.5577    0.0000 C   0  0  0  0  0  0  0  0  0  0  0  0
   -8.3600    4.2458    0.0000 C   0  0  0  0  0  0  0  0  0  0  0  0
   -8.8235    2.8192    0.0000 C   0  0  0  0  0  0  0  0  0  0  0  0
  -10.2907    2.5074    0.0000 C   0  0  0  0  0  0  0  0  0  0  0  0
   -7.8198    1.7045    0.0000 C   0  0  0  0  0  0  0  0  0  0  0  0
   -8.2833    0.2779    0.0000 O   0  0  0  0  0  0  0  0  0  0  0  0
   -6.3526    2.0164    0.0000 N   0  0  0  0  0  0  0  0  0  0  0  0
   -0.7500    1.2990    0.0000 C   0  0  0  0  0  0  0  0  0  0  0  0
    0.7500    1.2990    0.0000 C   0  0  0  0  0  0  0  0  0  0  0  0
  1  2  1  0
  2  3  2  0
  3  4  1  0
  4  5  2  0
  5  6  1  0
  6  7  2  0
  7  8  1  0
  8  9  2  0
  9 10  1  0
 10 11  1  0
 11 12  2  0
 12 13  1  0
 13 14  2  0
 14 15  1  0
 15 16  2  0
 16 17  1  0
 17 18  2  0
 18 19  1  0
 19 20  2  0
 14 21  1  0
 21 22  2  0
 22 23  1  0
 23 24  2  0
 24 25  1  0
 25 26  2  0
 26 27  1  0
 26 28  1  0
 28 29  2  0
 28 30  1  0
  5 31  1  0
 31 32  2  0
 32  2  1  0
 10  6  1  0
 22 11  1  0
 30 23  1  0
 20 15  1  0
M  END
>  <Title>  (599) 
idAAXAgen7

$$$$

     RDKit          2D

 43 43  0  0  0  0  0  0  0  0999 V2000
   11.5361    0.0000    0.0000 C   0  0  0  0  0  0  0  0  0  0  0  0
   10.0361    0.0000    0.0000 C   0  0  0  0  0  0  0  0  0  0  0  0
    9.9240   -1.4958    0.0000 C   0  0  0  0  0  0  0  0  0  0  0  0
    9.5902   -2.9582    0.0000 C   0  0  0  0  0  0  0  0  0  0  0  0
    9.0422   -4.3545    0.0000 C   0  0  0  0  0  0  0  0  0  0  0  0
    8.2922   -5.6535    0.0000 C   0  0  0  0  0  0  0  0  0  0  0  0
    7.3570   -6.8263    0.0000 C   0  0  0  0  0  0  0  0  0  0  0  0
    6.2574   -7.8466    0.0000 C   0  0  0  0  0  0  0  0  0  0  0  0
    5.0181   -8.6915    0.0000 C   0  0  0  0  0  0  0  0  0  0  0  0
    3.6666   -9.3424    0.0000 C   0  0  0  0  0  0  0  0  0  0  0  0
    2.2332   -9.7845    0.0000 C   0  0  0  0  0  0  0  0  0  0  0  0
    0.7500  -10.0081    0.0000 C   0  0  0  0  0  0  0  0  0  0  0  0
   -0.7500  -10.0081    0.0000 C   0  0  0  0  0  0  0  0  0  0  0  0
   -2.2332   -9.7845    0.0000 C   0  0  0  0  0  0  0  0  0  0  0  0
   -3.6666   -9.3424    0.0000 C   0  0  0  0  0  0  0  0  0  0  0  0
   -5.0181   -8.6915    0.0000 C   0  0  0  0  0  0  0  0  0  0  0  0
   -6.2574   -7.8466    0.0000 C   0  0  0  0  0  0  0  0  0  0  0  0
   -7.3570   -6.8263    0.0000 C   0  0  0  0  0  0  0  0  0  0  0  0
   -8.2922   -5.6535    0.0000 C   0  0  0  0  0  0  0  0  0  0  0  0
   -9.0422   -4.3545    0.0000 C   0  0  0  0  0  0  0  0  0  0  0  0
   -9.5902   -2.9582    0.0000 C   0  0  0  0  0  0  0  0  0  0  0  0
   -9.9240   -1.4958    0.0000 C   0  0  0  0  0  0  0  0  0  0  0  0
  -10.0361    0.0000    0.0000 C   0  0  0  0  0  0  0  0  0  0  0  0
   -9.9240    1.4958    0.0000 C   0  0  0  0  0  0  0  0  0  0  0  0
   -9.5902    2.9582    0.0000 C   0  0  0  0  0  0  0  0  0  0  0  0
   -9.0422    4.3545    0.0000 C   0  0  0  0  0  0  0  0  0  0  0  0
   -8.2922    5.6535    0.0000 C   0  0  0  0  0  0  0  0  0  0  0  0
   -7.3570    6.8263    0.0000 C   0  0  0  0  0  0  0  0  0  0  0  0
   -6.2574    7.8466    0.0000 C   0  0  0  0  0  0  0  0  0  0  0  0
   -5.0181    8.6915    0.0000 C   0  0  0  0  0  0  0  0  0  0  0  0
   -3.6666    9.3424    0.0000 C   0  0  0  0  0  0  0  0  0  0  0  0
   -2.2332    9.7845    0.0000 C   0  0  0  0  0  0  0  0  0  0  0  0
   -0.7500   10.0081    0.0000 C   0  0  0  0  0  0  0  0  0  0  0  0
    0.7500   10.0081    0.0000 C   0  0  0  0  0  0  0  0  0  0  0  0
    2.2332    9.7845    0.0000 C   0  0  0  0  0  0  0  0  0  0  0  0
    3.6666    9.3424    0.0000 C   0  0  0  0  0  0  0  0  0  0  0  0
    5.0181    8.6915    0.0000 C   0  0  0  0  0  0  0  0  0  0  0  0
    6.2574    7.8466    0.0000 C   0  0  0  0  0  0  0  0  0  0  0  0
    7.3570    6.8263    0.0000 C   0  0  0  0  0  0  0  0  0  0  0  0
    8.2922    5.6535    0.0000 C   0  0  0  0  0  0  0  0  0  0  0  0
    9.0422    4.3545    0.0000 C   0  0  0  0  0  0  0  0  0  0  0  0
    9.5902    2.9582    0.0000 C   0  0  0  0  0  0  0  0  0  0  0  0
    9.9240    1.4958    0.0000 C   0  0  0  0  0  0  0  0  0  0  0  0
  1  2  1  0
  2  3  2  0
  3  4  1  0
  4  5  2  0
  5  6  1  0
  6  7  2  0
  7  8  1  0
  8  9  2  0
  9 10  1  0
 10 11  2  0
 11 12  1  0
 12 13  2  0
 13 14  1  0
 14 15  2  0
 15 16  1  0
 16 17  2  0
 17 18  1  0
 18 19  2  0
 19 20  1  0
 20 21  2  0
 21 22  1  0
 22 23  2  0
 23 24  1  0
 24 25  2  0
 25 26  1  0
 26 27  2  0
 27 28  1  0
 28 29  2  0
 29 30  1  0
 30 31  2  0
 31 32  1  0
 32 33  2  0
 33 34  1  0
 34 35  2  0
 35 36  1  0
 36 37  2  0
 37 38  1  0
 38 39  2  0
 39 40  1  0
 40 41  2  0
 41 42  1  0
 42 43  2  0
 43  2  1  0
M  END
>  <Title>  (600) 
idAAXBgen7

$$$$

     RDKit          2D

 57 63  0  0  0  0  0  0  0  0999 V2000
    2.8449    6.6264    0.0000 C   0  0  0  0  0  0  0  0  0  0  0  0
    1.4115    6.1843    0.0000 O   0  0  0  0  0  0  0  0  0  0  0  0
    1.0777    4.7219    0.0000 C   0  0  0  0  0  0  0  0  0  0  0  0
    2.2505    3.7867    0.0000 C   0  0  0  0  0  0  0  0  0  0  0  0
    2.2505    2.2867    0.0000 C   0  0  0  0  0  0  0  0  0  0  0  0
    1.0777    1.3515    0.0000 C   0  0  0  0  0  0  0  0  0  0  0  0
    1.7286    0.0000    0.0000 C   0  0  0  0  0  0  0  0  0  0  0  0
    1.0777   -1.3515    0.0000 C   0  0  0  0  0  0  0  0  0  0  0  0
   -0.3846   -1.6852    0.0000 C   0  0  0  0  0  0  0  0  0  0  0  0
   -1.5574   -0.7500    0.0000 C   0  0  0  0  0  0  0  0  0  0  0  0
   -2.8626   -2.0540    0.0000 C   0  0  0  0  0  0  0  0  0  0  0  0
   -4.2733   -2.5638    0.0000 C   0  0  0  0  0  0  0  0  0  0  0  0
   -5.7705   -2.6555    0.0000 C   0  0  0  0  0  0  0  0  0  0  0  0
   -7.2328   -2.3218    0.0000 C   0  0  0  0  0  0  0  0  0  0  0  0
   -8.5420   -1.5895    0.0000 C   0  0  0  0  0  0  0  0  0  0  0  0
   -9.5918   -0.5181    0.0000 C   0  0  0  0  0  0  0  0  0  0  0  0
  -10.2972    0.8057    0.0000 C   0  0  0  0  0  0  0  0  0  0  0  0
  -10.6010    2.2746    0.0000 C   0  0  0  0  0  0  0  0  0  0  0  0
  -10.4788    3.7696    0.0000 C   0  0  0  0  0  0  0  0  0  0  0  0
   -9.9403    5.1696    0.0000 C   0  0  0  0  0  0  0  0  0  0  0  0
   -9.0292    6.3612    0.0000 C   0  0  0  0  0  0  0  0  0  0  0  0
   -7.8192    7.2478    0.0000 C   0  0  0  0  0  0  0  0  0  0  0  0
   -6.4085    7.7577    0.0000 C   0  0  0  0  0  0  0  0  0  0  0  0
   -4.9113    7.8494    0.0000 C   0  0  0  0  0  0  0  0  0  0  0  0
   -3.4490    7.5156    0.0000 C   0  0  0  0  0  0  0  0  0  0  0  0
   -2.1398    6.7833    0.0000 C   0  0  0  0  0  0  0  0  0  0  0  0
   -1.0901    5.7119    0.0000 C   0  0  0  0  0  0  0  0  0  0  0  0
   -0.3846    4.3881    0.0000 C   0  0  0  0  0  0  0  0  0  0  0  0
   -1.0355    3.0367    0.0000 C   0  0  0  0  0  0  0  0  0  0  0  0
   -2.5355    3.0367    0.0000 C   0  0  0  0  0  0  0  0  0  0  0  0
   -3.2855    4.3357    0.0000 C   0  0  0  0  0  0  0  0  0  0  0  0
   -2.5355    5.6348    0.0000 C   0  0  0  0  0  0  0  0  0  0  0  0
   -3.2855    6.9338    0.0000 C   0  0  0  0  0  0  0  0  0  0  0  0
   -2.5355    8.2328    0.0000 C   0  0  0  0  0  0  0  0  0  0  0  0
   -3.2855    9.5319    0.0000 C   0  0  0  0  0  0  0  0  0  0  0  0
   -2.5355   10.8309    0.0000 C   0  0  0  0  0  0  0  0  0  0  0  0
   -3.2855   12.1300    0.0000 C   0  0  0  0  0  0  0  0  0  0  0  0
   -2.5355   13.4290    0.0000 C   0  0  0  0  0  0  0  0  0  0  0  0
   -3.2855   14.7280    0.0000 C   0  0  0  0  0  0  0  0  0  0  0  0
   -4.7855   14.7280    0.0000 C   0  0  0  0  0  0  0  0  0  0  0  0
   -5.5355   13.4290    0.0000 C   0  0  0  0  0  0  0  0  0  0  0  0
   -4.7855   12.1300    0.0000 C   0  0  0  0  0  0  0  0  0  0  0  0
   -5.5355   10.8309    0.0000 C   0  0  0  0  0  0  0  0  0  0  0  0
   -7.0355   10.8309    0.0000 C   0  0  0  0  0  0  0  0  0  0  0  0
   -7.7855    9.5319    0.0000 C   0  0  0  0  0  0  0  0  0  0  0  0
   -7.0355    8.2328    0.0000 C   0  0  0  0  0  0  0  0  0  0  0  0
   -5.5355    8.2328    0.0000 C   0  0  0  0  0  0  0  0  0  0  0  0
   -4.7855    9.5319    0.0000 C   0  0  0  0  0  0  0  0  0  0  0  0
   -1.0355   10.8309    0.0000 C   0  0  0  0  0  0  0  0  0  0  0  0
   -0.0318   11.9456    0.0000 N   0  0  0  0  0  0  0  0  0  0  0  0
    1.3385   11.3355    0.0000 N   0  0  0  0  0  0  0  0  0  0  0  0
    1.1818    9.8437    0.0000 N   0  0  0  0  0  0  0  0  0  0  0  0
   -0.2855    9.5319    0.0000 N   0  0  0  0  0  0  0  0  0  0  0  0
   -1.0355    8.2328    0.0000 C   0  0  0  0  0  0  0  0  0  0  0  0
   -0.2855    6.9338    0.0000 O   0  0  0  0  0  0  0  0  0  0  0  0
   -0.3846    1.6852    0.0000 C   0  0  0  0  0  0  0  0  0  0  0  0
   -1.5574    0.7500    0.0000 C   0  0  0  0  0  0  0  0  0  0  0  0
  1  2  1  0
  2  3  1  0
  3  4  2  0
  4  5  1  0
  5  6  2  0
  6  7  1  0
  7  8  2  0
  8  9  1  0
  9 10  2  0
 10 11  1  0
 11 12  2  0
 12 13  1  0
 13 14  2  0
 14 15  1  0
 15 16  2  0
 16 17  1  0
 17 18  2  0
 18 19  1  0
 19 20  2  0
 20 21  1  0
 21 22  2  0
 22 23  1  0
 23 24  2  0
 24 25  1  0
 25 26  2  0
 26 27  1  0
 27 28  2  0
 28 29  1  0
 29 30  2  3
 30 31  1  0
 31 32  2  3
 32 33  1  0
 33 34  2  3
 34 35  1  0
 35 36  2  0
 36 37  1  0
 37 38  2  0
 38 39  1  0
 39 40  2  0
 40 41  1  0
 41 42  2  0
 42 43  1  0
 43 44  2  0
 44 45  1  0
 45 46  2  0
 46 47  1  0
 47 48  2  0
 36 49  1  0
 49 50  2  0
 50 51  1  0
 51 52  2  0
 52 53  1  0
 53 54  1  0
 54 55  2  0
 29 56  1  0
 56 57  2  0
 28  3  1  0
 54 34  1  0
 56  6  1  0
 57 10  1  0
 42 37  1  0
 48 43  1  0
 53 49  1  0
M  END
>  <Title>  (601) 
idAAXCgen7

$$$$

     RDKit          2D

 30 33  0  0  0  0  0  0  0  0999 V2000
    5.2500   -1.2990    0.0000 C   0  0  0  0  0  0  0  0  0  0  0  0
    3.7500   -1.2990    0.0000 C   0  0  0  0  0  0  0  0  0  0  0  0
    3.0000   -2.5981    0.0000 O   0  0  0  0  0  0  0  0  0  0  0  0
    3.0000    0.0000    0.0000 O   0  0  0  0  0  0  0  0  0  0  0  0
    1.5000    0.0000    0.0000 C   0  0  0  0  0  0  0  0  0  0  0  0
    0.7500   -1.2990    0.0000 C   0  0  0  0  0  0  0  0  0  0  0  0
   -0.7500   -1.2990    0.0000 C   0  0  0  0  0  0  0  0  0  0  0  0
   -1.5000    0.0000    0.0000 C   0  0  0  0  0  0  0  0  0  0  0  0
   -3.0000    0.0000    0.0000 N   0  0  0  0  0  0  0  0  0  0  0  0
   -3.7500    1.2990    0.0000 C   0  0  0  0  0  0  0  0  0  0  0  0
   -3.0000    2.5981    0.0000 O   0  0  0  0  0  0  0  0  0  0  0  0
   -5.2500    1.2990    0.0000 C   0  0  0  0  0  0  0  0  0  0  0  0
   -6.1317    0.0855    0.0000 N   0  0  0  0  0  0  0  0  0  0  0  0
   -7.5583    0.5490    0.0000 N   0  0  0  0  0  0  0  0  0  0  0  0
   -7.5583    2.0490    0.0000 N   0  0  0  0  0  0  0  0  0  0  0  0
   -6.1317    2.5126    0.0000 N   0  0  0  0  0  0  0  0  0  0  0  0
   -5.6682    3.9391    0.0000 C   0  0  0  0  0  0  0  0  0  0  0  0
   -4.2009    4.2510    0.0000 C   0  0  0  0  0  0  0  0  0  0  0  0
   -3.7374    5.6776    0.0000 C   0  0  0  0  0  0  0  0  0  0  0  0
   -4.7411    6.7923    0.0000 C   0  0  0  0  0  0  0  0  0  0  0  0
   -4.2776    8.2189    0.0000 C   0  0  0  0  0  0  0  0  0  0  0  0
   -2.8104    8.5308    0.0000 C   0  0  0  0  0  0  0  0  0  0  0  0
   -2.3468    9.9574    0.0000 C   0  0  0  0  0  0  0  0  0  0  0  0
   -3.3505   11.0721    0.0000 C   0  0  0  0  0  0  0  0  0  0  0  0
   -4.8177   10.7602    0.0000 C   0  0  0  0  0  0  0  0  0  0  0  0
   -5.2813    9.3336    0.0000 C   0  0  0  0  0  0  0  0  0  0  0  0
   -6.2083    6.4805    0.0000 C   0  0  0  0  0  0  0  0  0  0  0  0
   -6.6718    5.0539    0.0000 C   0  0  0  0  0  0  0  0  0  0  0  0
   -0.7500    1.2990    0.0000 C   0  0  0  0  0  0  0  0  0  0  0  0
    0.7500    1.2990    0.0000 C   0  0  0  0  0  0  0  0  0  0  0  0
  1  2  1  0
  2  3  2  0
  2  4  1  0
  4  5  1  0
  5  6  2  0
  6  7  1  0
  7  8  2  0
  8  9  1  0
  9 10  1  0
 10 11  2  0
 10 12  1  0
 12 13  2  0
 13 14  1  0
 14 15  2  0
 15 16  1  0
 16 17  1  0
 17 18  2  0
 18 19  1  0
 19 20  2  0
 20 21  1  0
 21 22  2  0
 22 23  1  0
 23 24  2  0
 24 25  1  0
 25 26  2  0
 20 27  1  0
 27 28  2  0
  8 29  1  0
 29 30  2  0
 30  5  1  0
 16 12  1  0
 28 17  1  0
 26 21  1  0
M  END
>  <Title>  (602) 
idAAXDgen7

$$$$

     RDKit          2D

 29 33  0  0  0  0  0  0  0  0999 V2000
    3.0000    0.0000    0.0000 C   0  0  0  0  0  0  0  0  0  0  0  0
    1.5000    0.0000    0.0000 C   0  0  0  0  0  0  0  0  0  0  0  0
    0.7500   -1.2990    0.0000 C   0  0  0  0  0  0  0  0  0  0  0  0
   -0.7500   -1.2990    0.0000 C   0  0  0  0  0  0  0  0  0  0  0  0
   -1.5000    0.0000    0.0000 C   0  0  0  0  0  0  0  0  0  0  0  0
   -3.0000    0.0000    0.0000 N   0  0  0  0  0  0  0  0  0  0  0  0
   -4.0607    1.0607    0.0000 C   0  0  0  0  0  0  0  0  0  0  0  0
   -5.1213    0.0000    0.0000 C   0  0  0  0  0  0  0  0  0  0  0  0
   -6.6213    0.0000    0.0000 C   0  0  0  0  0  0  0  0  0  0  0  0
   -7.5030   -1.2135    0.0000 N   0  0  0  0  0  0  0  0  0  0  0  0
   -8.9296   -0.7500    0.0000 N   0  0  0  0  0  0  0  0  0  0  0  0
   -8.9296    0.7500    0.0000 N   0  0  0  0  0  0  0  0  0  0  0  0
   -7.5030    1.2135    0.0000 N   0  0  0  0  0  0  0  0  0  0  0  0
   -7.0395    2.6401    0.0000 C   0  0  0  0  0  0  0  0  0  0  0  0
   -5.6129    3.1036    0.0000 N   0  0  0  0  0  0  0  0  0  0  0  0
   -5.6129    4.6036    0.0000 N   0  0  0  0  0  0  0  0  0  0  0  0
   -7.0395    5.0672    0.0000 N   0  0  0  0  0  0  0  0  0  0  0  0
   -7.9212    3.8536    0.0000 N   0  0  0  0  0  0  0  0  0  0  0  0
   -9.4212    3.8536    0.0000 C   0  0  0  0  0  0  0  0  0  0  0  0
  -10.1712    2.5546    0.0000 C   0  0  0  0  0  0  0  0  0  0  0  0
  -11.6712    2.5546    0.0000 C   0  0  0  0  0  0  0  0  0  0  0  0
  -12.4212    3.8536    0.0000 C   0  0  0  0  0  0  0  0  0  0  0  0
  -11.6712    5.1527    0.0000 C   0  0  0  0  0  0  0  0  0  0  0  0
  -10.1712    5.1527    0.0000 C   0  0  0  0  0  0  0  0  0  0  0  0
   -4.0607   -1.0607    0.0000 C   0  0  0  0  0  0  0  0  0  0  0  0
   -4.0607   -2.5607    0.0000 O   0  0  0  0  0  0  0  0  0  0  0  0
   -0.7500    1.2990    0.0000 C   0  0  0  0  0  0  0  0  0  0  0  0
   -1.5000    2.5981    0.0000 O   0  0  0  0  0  0  0  0  0  0  0  0
    0.7500    1.2990    0.0000 N   0  0  0  0  0  0  0  0  0  0  0  0
  1  2  1  0
  2  3  2  0
  3  4  1  0
  4  5  2  0
  5  6  1  0
  6  7  1  0
  7  8  2  0
  8  9  1  0
  9 10  2  0
 10 11  1  0
 11 12  2  0
 12 13  1  0
 13 14  1  0
 14 15  2  0
 15 16  1  0
 16 17  2  0
 17 18  1  0
 18 19  1  0
 19 20  2  0
 20 21  1  0
 21 22  2  0
 22 23  1  0
 23 24  2  0
  8 25  1  0
 25 26  2  0
  5 27  1  0
 27 28  2  0
 27 29  1  0
 29  2  1  0
 25  6  1  0
 13  9  1  0
 18 14  1  0
 24 19  1  0
M  END
>  <Title>  (603) 
idAAXEgen7

$$$$

     RDKit          2D

 24 27  0  0  0  0  0  0  0  0999 V2000
   -5.9758   -2.7821    0.0000 C   0  0  0  0  0  0  0  0  0  0  0  0
   -6.8575   -1.5685    0.0000 O   0  0  0  0  0  0  0  0  0  0  0  0
   -6.2474   -0.1982    0.0000 C   0  0  0  0  0  0  0  0  0  0  0  0
   -4.7556   -0.0414    0.0000 C   0  0  0  0  0  0  0  0  0  0  0  0
   -4.1455    1.3289    0.0000 C   0  0  0  0  0  0  0  0  0  0  0  0
   -5.0272    2.5424    0.0000 C   0  0  0  0  0  0  0  0  0  0  0  0
   -4.4171    3.9127    0.0000 C   0  0  0  0  0  0  0  0  0  0  0  0
   -5.1671    5.2118    0.0000 N   0  0  0  0  0  0  0  0  0  0  0  0
   -4.1634    6.3265    0.0000 N   0  0  0  0  0  0  0  0  0  0  0  0
   -2.7931    5.7164    0.0000 N   0  0  0  0  0  0  0  0  0  0  0  0
   -2.9499    4.2246    0.0000 N   0  0  0  0  0  0  0  0  0  0  0  0
   -1.8351    3.2209    0.0000 C   0  0  0  0  0  0  0  0  0  0  0  0
   -2.1470    1.7537    0.0000 C   0  0  0  0  0  0  0  0  0  0  0  0
   -1.0323    0.7500    0.0000 C   0  0  0  0  0  0  0  0  0  0  0  0
    0.3943    1.2135    0.0000 C   0  0  0  0  0  0  0  0  0  0  0  0
    1.6933    0.4635    0.0000 C   0  0  0  0  0  0  0  0  0  0  0  0
    2.8081    1.4672    0.0000 C   0  0  0  0  0  0  0  0  0  0  0  0
    2.1979    2.8375    0.0000 C   0  0  0  0  0  0  0  0  0  0  0  0
    0.7062    2.6807    0.0000 C   0  0  0  0  0  0  0  0  0  0  0  0
   -0.4086    3.6844    0.0000 C   0  0  0  0  0  0  0  0  0  0  0  0
   -0.0967    5.1517    0.0000 O   0  0  0  0  0  0  0  0  0  0  0  0
   -6.5190    2.3856    0.0000 C   0  0  0  0  0  0  0  0  0  0  0  0
   -7.4006    3.5992    0.0000 O   0  0  0  0  0  0  0  0  0  0  0  0
   -7.1291    1.0153    0.0000 N   0  0  0  0  0  0  0  0  0  0  0  0
  1  2  1  0
  2  3  1  0
  3  4  2  0
  4  5  1  0
  5  6  2  0
  6  7  1  0
  7  8  2  0
  8  9  1  0
  9 10  2  0
 10 11  1  0
 11 12  1  0
 12 13  2  0
 13 14  1  0
 14 15  2  0
 15 16  1  0
 16 17  2  0
 17 18  1  0
 18 19  2  0
 19 20  1  0
 20 21  2  0
  6 22  1  0
 22 23  2  0
 22 24  1  0
 24  3  1  0
 11  7  1  0
 20 12  1  0
 19 15  1  0
M  END
>  <Title>  (604) 
idAAXFgen7

$$$$

     RDKit          2D

 34 39  0  0  0  0  0  0  0  0999 V2000
  -10.1624    4.2767    0.0000 C   0  0  0  0  0  0  0  0  0  0  0  0
   -8.9488    3.3950    0.0000 C   0  0  0  0  0  0  0  0  0  0  0  0
   -9.1056    1.9033    0.0000 C   0  0  0  0  0  0  0  0  0  0  0  0
   -7.8921    1.0216    0.0000 C   0  0  0  0  0  0  0  0  0  0  0  0
   -6.5218    1.6317    0.0000 C   0  0  0  0  0  0  0  0  0  0  0  0
   -5.3083    0.7500    0.0000 C   0  0  0  0  0  0  0  0  0  0  0  0
   -5.3083   -0.7500    0.0000 N   0  0  0  0  0  0  0  0  0  0  0  0
   -3.8817   -1.2135    0.0000 N   0  0  0  0  0  0  0  0  0  0  0  0
   -3.0000    0.0000    0.0000 N   0  0  0  0  0  0  0  0  0  0  0  0
   -3.8817    1.2135    0.0000 N   0  0  0  0  0  0  0  0  0  0  0  0
   -3.4182    2.6401    0.0000 C   0  0  0  0  0  0  0  0  0  0  0  0
   -4.2998    3.8536    0.0000 C   0  0  0  0  0  0  0  0  0  0  0  0
   -3.4182    5.0672    0.0000 N   0  0  0  0  0  0  0  0  0  0  0  0
   -1.9916    4.6036    0.0000 C   0  0  0  0  0  0  0  0  0  0  0  0
   -1.9916    3.1036    0.0000 N   0  0  0  0  0  0  0  0  0  0  0  0
   -0.7780    2.2220    0.0000 C   0  0  0  0  0  0  0  0  0  0  0  0
    0.5923    2.8321    0.0000 C   0  0  0  0  0  0  0  0  0  0  0  0
    1.8058    1.9504    0.0000 C   0  0  0  0  0  0  0  0  0  0  0  0
    1.6490    0.4586    0.0000 C   0  0  0  0  0  0  0  0  0  0  0  0
    2.8625   -0.4231    0.0000 C   0  0  0  0  0  0  0  0  0  0  0  0
    2.8625   -1.9231    0.0000 C   0  0  0  0  0  0  0  0  0  0  0  0
    4.2891   -2.3866    0.0000 N   0  0  0  0  0  0  0  0  0  0  0  0
    5.1708   -1.1731    0.0000 N   0  0  0  0  0  0  0  0  0  0  0  0
    4.2891    0.0404    0.0000 N   0  0  0  0  0  0  0  0  0  0  0  0
    4.7526    1.4670    0.0000 C   0  0  0  0  0  0  0  0  0  0  0  0
    3.7489    2.5818    0.0000 C   0  0  0  0  0  0  0  0  0  0  0  0
    4.2125    4.0083    0.0000 C   0  0  0  0  0  0  0  0  0  0  0  0
    5.6797    4.3202    0.0000 C   0  0  0  0  0  0  0  0  0  0  0  0
    6.6834    3.2055    0.0000 C   0  0  0  0  0  0  0  0  0  0  0  0
    6.2199    1.7789    0.0000 C   0  0  0  0  0  0  0  0  0  0  0  0
    0.2787   -0.1515    0.0000 C   0  0  0  0  0  0  0  0  0  0  0  0
   -0.9348    0.7302    0.0000 C   0  0  0  0  0  0  0  0  0  0  0  0
   -6.3650    3.1235    0.0000 C   0  0  0  0  0  0  0  0  0  0  0  0
   -7.5785    4.0051    0.0000 C   0  0  0  0  0  0  0  0  0  0  0  0
  1  2  1  0
  2  3  2  0
  3  4  1  0
  4  5  2  0
  5  6  1  0
  6  7  2  0
  7  8  1  0
  8  9  2  0
  9 10  1  0
 10 11  1  0
 11 12  2  0
 12 13  1  0
 13 14  2  0
 14 15  1  0
 15 16  1  0
 16 17  2  0
 17 18  1  0
 18 19  2  0
 19 20  1  0
 20 21  2  0
 21 22  1  0
 22 23  2  0
 23 24  1  0
 24 25  1  0
 25 26  2  0
 26 27  1  0
 27 28  2  0
 28 29  1  0
 29 30  2  0
 19 31  1  0
 31 32  2  0
  5 33  1  0
 33 34  2  0
 34  2  1  0
 10  6  1  0
 15 11  1  0
 32 16  1  0
 24 20  1  0
 30 25  1  0
M  END
>  <Title>  (605) 
idAAXGgen7

$$$$

     RDKit          2D

 38 42  0  0  0  0  0  0  0  0999 V2000
    3.0000    0.0000    0.0000 C   0  0  0  0  0  0  0  0  0  0  0  0
    1.5000    0.0000    0.0000 C   0  0  0  0  0  0  0  0  0  0  0  0
    0.7500   -1.2990    0.0000 C   0  0  0  0  0  0  0  0  0  0  0  0
   -0.7500   -1.2990    0.0000 C   0  0  0  0  0  0  0  0  0  0  0  0
   -1.5000    0.0000    0.0000 C   0  0  0  0  0  0  0  0  0  0  0  0
   -3.0000    0.0000    0.0000 N   0  0  0  0  0  0  0  0  0  0  0  0
   -3.7500    1.2990    0.0000 N   0  0  0  0  0  0  0  0  0  0  0  0
   -5.2500    1.2990    0.0000 N   0  0  0  0  0  0  0  0  0  0  0  0
   -6.0000    2.5981    0.0000 N   0  0  0  0  0  0  0  0  0  0  0  0
   -7.2990    3.3481    0.0000 C   0  0  0  0  0  0  0  0  0  0  0  0
   -8.7990    3.3481    0.0000 O   0  0  0  0  0  0  0  0  0  0  0  0
   -6.0000    4.0981    0.0000 C   0  0  0  0  0  0  0  0  0  0  0  0
   -5.2500    5.3971    0.0000 C   0  0  0  0  0  0  0  0  0  0  0  0
   -3.7500    5.3971    0.0000 C   0  0  0  0  0  0  0  0  0  0  0  0
   -3.0000    6.6962    0.0000 C   0  0  0  0  0  0  0  0  0  0  0  0
   -3.7500    7.9952    0.0000 C   0  0  0  0  0  0  0  0  0  0  0  0
   -3.0000    9.2942    0.0000 N   0  0  0  0  0  0  0  0  0  0  0  0
   -1.5000    9.2942    0.0000 C   0  0  0  0  0  0  0  0  0  0  0  0
   -0.7500    7.9952    0.0000 O   0  0  0  0  0  0  0  0  0  0  0  0
   -0.7500   10.5933    0.0000 N   0  0  0  0  0  0  0  0  0  0  0  0
    0.7500   10.5933    0.0000 C   0  0  0  0  0  0  0  0  0  0  0  0
    1.5000    9.2942    0.0000 C   0  0  0  0  0  0  0  0  0  0  0  0
    3.0000    9.2942    0.0000 C   0  0  0  0  0  0  0  0  0  0  0  0
    3.7500   10.5933    0.0000 C   0  0  0  0  0  0  0  0  0  0  0  0
    3.0000   11.8923    0.0000 C   0  0  0  0  0  0  0  0  0  0  0  0
    1.5000   11.8923    0.0000 C   0  0  0  0  0  0  0  0  0  0  0  0
   -5.2500    7.9952    0.0000 C   0  0  0  0  0  0  0  0  0  0  0  0
   -6.0000    6.6962    0.0000 C   0  0  0  0  0  0  0  0  0  0  0  0
   -7.5000    6.6962    0.0000 C   0  0  0  0  0  0  0  0  0  0  0  0
   -8.2500    7.9952    0.0000 C   0  0  0  0  0  0  0  0  0  0  0  0
   -9.7500    7.9952    0.0000 C   0  0  0  0  0  0  0  0  0  0  0  0
  -10.5000    6.6962    0.0000 C   0  0  0  0  0  0  0  0  0  0  0  0
  -12.0000    6.6962    0.0000 C   0  0  0  0  0  0  0  0  0  0  0  0
   -9.7500    5.3971    0.0000 C   0  0  0  0  0  0  0  0  0  0  0  0
  -10.5000    4.0981    0.0000 O   0  0  0  0  0  0  0  0  0  0  0  0
   -8.2500    5.3971    0.0000 N   0  0  0  0  0  0  0  0  0  0  0  0
   -0.7500    1.2990    0.0000 N   0  0  0  0  0  0  0  0  0  0  0  0
    0.7500    1.2990    0.0000 C   0  0  0  0  0  0  0  0  0  0  0  0
  1  2  1  0
  2  3  2  0
  3  4  1  0
  4  5  2  0
  5  6  1  0
  6  7  2  3
  7  8  1  0
  8  9  1  0
  9 10  1  0
 10 11  2  0
 10 12  1  0
 12 13  1  0
 13 14  2  0
 14 15  1  0
 15 16  2  0
 16 17  1  0
 17 18  1  0
 18 19  2  0
 18 20  1  0
 20 21  1  0
 21 22  2  0
 22 23  1  0
 23 24  2  0
 24 25  1  0
 25 26  2  0
 16 27  1  0
 27 28  2  0
 28 29  1  0
 29 30  2  0
 30 31  1  0
 31 32  2  0
 32 33  1  0
 32 34  1  0
 34 35  2  0
 34 36  1  0
  5 37  1  0
 37 38  1  0
 38  2  1  0
 12  9  1  0
 28 13  1  0
 36 29  1  0
 26 21  1  0
M  END
>  <Title>  (606) 
idAAXHgen7

$$$$

     RDKit          2D

 40 45  0  0  0  0  0  0  0  0999 V2000
    3.7500   -1.2990    0.0000 C   0  0  0  0  0  0  0  0  0  0  0  0
    3.0000    0.0000    0.0000 O   0  0  0  0  0  0  0  0  0  0  0  0
    1.5000    0.0000    0.0000 C   0  0  0  0  0  0  0  0  0  0  0  0
    0.7500   -1.2990    0.0000 C   0  0  0  0  0  0  0  0  0  0  0  0
   -0.7500   -1.2990    0.0000 C   0  0  0  0  0  0  0  0  0  0  0  0
   -1.5000    0.0000    0.0000 C   0  0  0  0  0  0  0  0  0  0  0  0
   -3.0000    0.0000    0.0000 C   0  0  0  0  0  0  0  0  0  0  0  0
   -3.8817   -1.2135    0.0000 N   0  0  0  0  0  0  0  0  0  0  0  0
   -5.3083   -0.7500    0.0000 N   0  0  0  0  0  0  0  0  0  0  0  0
   -5.3083    0.7500    0.0000 N   0  0  0  0  0  0  0  0  0  0  0  0
   -3.8817    1.2135    0.0000 N   0  0  0  0  0  0  0  0  0  0  0  0
   -3.4182    2.6401    0.0000 C   0  0  0  0  0  0  0  0  0  0  0  0
   -1.9509    2.9520    0.0000 C   0  0  0  0  0  0  0  0  0  0  0  0
   -1.4874    4.3786    0.0000 C   0  0  0  0  0  0  0  0  0  0  0  0
   -2.4911    5.4933    0.0000 C   0  0  0  0  0  0  0  0  0  0  0  0
   -2.0276    6.9199    0.0000 C   0  0  0  0  0  0  0  0  0  0  0  0
   -2.9093    8.1334    0.0000 N   0  0  0  0  0  0  0  0  0  0  0  0
   -2.0276    9.3469    0.0000 N   0  0  0  0  0  0  0  0  0  0  0  0
   -0.6010    8.8834    0.0000 N   0  0  0  0  0  0  0  0  0  0  0  0
   -0.6010    7.3834    0.0000 N   0  0  0  0  0  0  0  0  0  0  0  0
    0.6125    6.5017    0.0000 C   0  0  0  0  0  0  0  0  0  0  0  0
    0.4557    5.0099    0.0000 C   0  0  0  0  0  0  0  0  0  0  0  0
    1.6693    4.1283    0.0000 C   0  0  0  0  0  0  0  0  0  0  0  0
    3.0396    4.7384    0.0000 C   0  0  0  0  0  0  0  0  0  0  0  0
    3.1964    6.2301    0.0000 C   0  0  0  0  0  0  0  0  0  0  0  0
    1.9829    7.1118    0.0000 C   0  0  0  0  0  0  0  0  0  0  0  0
   -3.9583    5.1814    0.0000 C   0  0  0  0  0  0  0  0  0  0  0  0
   -4.4218    3.7548    0.0000 C   0  0  0  0  0  0  0  0  0  0  0  0
   -5.8891    3.4430    0.0000 C   0  0  0  0  0  0  0  0  0  0  0  0
   -6.8928    4.5577    0.0000 C   0  0  0  0  0  0  0  0  0  0  0  0
   -8.3600    4.2458    0.0000 C   0  0  0  0  0  0  0  0  0  0  0  0
   -8.8235    2.8192    0.0000 C   0  0  0  0  0  0  0  0  0  0  0  0
  -10.2907    2.5074    0.0000 C   0  0  0  0  0  0  0  0  0  0  0  0
  -10.7543    1.0808    0.0000 O   0  0  0  0  0  0  0  0  0  0  0  0
  -11.2944    3.6221    0.0000 N   0  0  0  0  0  0  0  0  0  0  0  0
  -12.7617    3.3102    0.0000 O   0  0  0  0  0  0  0  0  0  0  0  0
   -7.8198    1.7045    0.0000 N   0  0  0  0  0  0  0  0  0  0  0  0
   -6.3526    2.0164    0.0000 C   0  0  0  0  0  0  0  0  0  0  0  0
   -0.7500    1.2990    0.0000 C   0  0  0  0  0  0  0  0  0  0  0  0
    0.7500    1.2990    0.0000 C   0  0  0  0  0  0  0  0  0  0  0  0
  1  2  1  0
  2  3  1  0
  3  4  2  0
  4  5  1  0
  5  6  2  0
  6  7  1  0
  7  8  2  0
  8  9  1  0
  9 10  2  0
 10 11  1  0
 11 12  1  0
 12 13  2  0
 13 14  1  0
 14 15  2  0
 15 16  1  0
 16 17  2  0
 17 18  1  0
 18 19  2  0
 19 20  1  0
 20 21  1  0
 21 22  2  0
 22 23  1  0
 23 24  2  0
 24 25  1  0
 25 26  2  0
 15 27  1  0
 27 28  2  0
 28 29  1  0
 29 30  2  0
 30 31  1  0
 31 32  2  0
 32 33  1  0
 33 34  2  0
 33 35  1  0
 35 36  1  0
 32 37  1  0
 37 38  1  0
  6 39  1  0
 39 40  2  0
 40  3  1  0
 11  7  1  0
 28 12  1  0
 38 29  1  0
 20 16  1  0
 26 21  1  0
M  END
>  <Title>  (607) 
idAAXIgen7

$$$$

     RDKit          2D

 12 12  0  0  0  0  0  0  0  0999 V2000
    4.4429   -1.2990    0.0000 C   0  0  0  0  0  0  0  0  0  0  0  0
    3.6929    0.0000    0.0000 O   0  0  0  0  0  0  0  0  0  0  0  0
    2.1929    0.0000    0.0000 C   0  0  0  0  0  0  0  0  0  0  0  0
    1.6798    1.4095    0.0000 C   0  0  0  0  0  0  0  0  0  0  0  0
    0.3808    2.1595    0.0000 C   0  0  0  0  0  0  0  0  0  0  0  0
   -1.0964    1.8991    0.0000 C   0  0  0  0  0  0  0  0  0  0  0  0
   -2.0606    0.7500    0.0000 C   0  0  0  0  0  0  0  0  0  0  0  0
   -2.0606   -0.7500    0.0000 C   0  0  0  0  0  0  0  0  0  0  0  0
   -3.4701   -1.2630    0.0000 C   0  0  0  0  0  0  0  0  0  0  0  0
   -1.0964   -1.8991    0.0000 C   0  0  0  0  0  0  0  0  0  0  0  0
    0.3808   -2.1595    0.0000 C   0  0  0  0  0  0  0  0  0  0  0  0
    1.6798   -1.4095    0.0000 C   0  0  0  0  0  0  0  0  0  0  0  0
  1  2  1  0
  2  3  1  0
  3  4  2  0
  4  5  1  0
  5  6  2  0
  6  7  1  0
  7  8  2  0
  8  9  1  0
  8 10  1  0
 10 11  1  0
 11 12  2  0
 12  3  1  0
M  END
>  <Title>  (608) 
idAAXJgen7

$$$$

     RDKit          2D

 19 21  0  0  0  0  0  0  0  0999 V2000
    3.0000    0.0000    0.0000 C   0  0  0  0  0  0  0  0  0  0  0  0
    1.5000    0.0000    0.0000 C   0  0  0  0  0  0  0  0  0  0  0  0
    0.7500    1.2990    0.0000 C   0  0  0  0  0  0  0  0  0  0  0  0
   -0.7500    1.2990    0.0000 C   0  0  0  0  0  0  0  0  0  0  0  0
   -1.5000    0.0000    0.0000 C   0  0  0  0  0  0  0  0  0  0  0  0
   -3.0000    0.0000    0.0000 C   0  0  0  0  0  0  0  0  0  0  0  0
   -3.8817   -1.2135    0.0000 N   0  0  0  0  0  0  0  0  0  0  0  0
   -5.3083   -0.7500    0.0000 N   0  0  0  0  0  0  0  0  0  0  0  0
   -5.3083    0.7500    0.0000 N   0  0  0  0  0  0  0  0  0  0  0  0
   -3.8817    1.2135    0.0000 N   0  0  0  0  0  0  0  0  0  0  0  0
   -3.4182    2.6401    0.0000 C   0  0  0  0  0  0  0  0  0  0  0  0
   -1.9509    2.9520    0.0000 C   0  0  0  0  0  0  0  0  0  0  0  0
   -1.4874    4.3786    0.0000 C   0  0  0  0  0  0  0  0  0  0  0  0
   -2.4911    5.4933    0.0000 C   0  0  0  0  0  0  0  0  0  0  0  0
   -3.9583    5.1814    0.0000 C   0  0  0  0  0  0  0  0  0  0  0  0
   -4.4218    3.7548    0.0000 C   0  0  0  0  0  0  0  0  0  0  0  0
   -0.7500   -1.2990    0.0000 C   0  0  0  0  0  0  0  0  0  0  0  0
   -1.5000   -2.5981    0.0000 O   0  0  0  0  0  0  0  0  0  0  0  0
    0.7500   -1.2990    0.0000 N   0  0  0  0  0  0  0  0  0  0  0  0
  1  2  1  0
  2  3  2  0
  3  4  1  0
  4  5  2  0
  5  6  1  0
  6  7  2  0
  7  8  1  0
  8  9  2  0
  9 10  1  0
 10 11  1  0
 11 12  2  0
 12 13  1  0
 13 14  2  0
 14 15  1  0
 15 16  2  0
  5 17  1  0
 17 18  2  0
 17 19  1  0
 19  2  1  0
 10  6  1  0
 16 11  1  0
M  END
>  <Title>  (609) 
idAAXKgen7

$$$$

     RDKit          2D

 14 15  0  0  0  0  0  0  0  0999 V2000
   -0.5874   -6.4213    0.0000 O   0  0  0  0  0  0  0  0  0  0  0  0
    0.7985   -5.8473    0.0000 C   0  0  0  0  0  0  0  0  0  0  0  0
    0.9942   -4.3602    0.0000 C   0  0  0  0  0  0  0  0  0  0  0  0
    2.3801   -3.7861    0.0000 C   0  0  0  0  0  0  0  0  0  0  0  0
    2.5758   -2.2990    0.0000 C   0  0  0  0  0  0  0  0  0  0  0  0
    1.3858   -1.3858    0.0000 C   0  0  0  0  0  0  0  0  0  0  0  0
    1.9598    0.0000    0.0000 C   0  0  0  0  0  0  0  0  0  0  0  0
    1.3858    1.3858    0.0000 C   0  0  0  0  0  0  0  0  0  0  0  0
    0.0000    1.9598    0.0000 C   0  0  0  0  0  0  0  0  0  0  0  0
   -1.3858    1.3858    0.0000 C   0  0  0  0  0  0  0  0  0  0  0  0
   -1.9598    0.0000    0.0000 C   0  0  0  0  0  0  0  0  0  0  0  0
   -1.3858   -1.3858    0.0000 C   0  0  0  0  0  0  0  0  0  0  0  0
   -0.0000   -1.9598    0.0000 C   0  0  0  0  0  0  0  0  0  0  0  0
   -0.1958   -3.4470    0.0000 C   0  0  0  0  0  0  0  0  0  0  0  0
  1  2  1  0
  2  3  1  0
  3  4  2  0
  4  5  1  0
  5  6  2  0
  6  7  1  0
  7  8  2  0
  8  9  1  0
  9 10  2  0
 10 11  1  0
 11 12  2  0
 12 13  1  0
 13 14  2  0
 14  3  1  0
 13  6  1  0
M  END
>  <Title>  (610) 
idAAXLgen7

$$$$

     RDKit          2D

 24 27  0  0  0  0  0  0  0  0999 V2000
    9.5879    0.4297    0.0000 C   0  0  0  0  0  0  0  0  0  0  0  0
    8.1207    0.7415    0.0000 O   0  0  0  0  0  0  0  0  0  0  0  0
    7.1170   -0.3732    0.0000 C   0  0  0  0  0  0  0  0  0  0  0  0
    5.6252   -0.2164    0.0000 C   0  0  0  0  0  0  0  0  0  0  0  0
    5.0151   -1.5867    0.0000 C   0  0  0  0  0  0  0  0  0  0  0  0
    6.1298   -2.5904    0.0000 C   0  0  0  0  0  0  0  0  0  0  0  0
    5.9730   -4.0822    0.0000 C   0  0  0  0  0  0  0  0  0  0  0  0
    7.0877   -5.0859    0.0000 N   0  0  0  0  0  0  0  0  0  0  0  0
    6.4776   -6.4562    0.0000 N   0  0  0  0  0  0  0  0  0  0  0  0
    4.9858   -6.2994    0.0000 N   0  0  0  0  0  0  0  0  0  0  0  0
    4.6740   -4.8322    0.0000 N   0  0  0  0  0  0  0  0  0  0  0  0
    3.3037   -4.2221    0.0000 C   0  0  0  0  0  0  0  0  0  0  0  0
    2.0046   -4.9721    0.0000 C   0  0  0  0  0  0  0  0  0  0  0  0
    0.8899   -3.9684    0.0000 C   0  0  0  0  0  0  0  0  0  0  0  0
    1.5000   -2.5981    0.0000 C   0  0  0  0  0  0  0  0  0  0  0  0
    0.7500   -1.2990    0.0000 C   0  0  0  0  0  0  0  0  0  0  0  0
    1.5000    0.0000    0.0000 C   0  0  0  0  0  0  0  0  0  0  0  0
    0.7500    1.2990    0.0000 C   0  0  0  0  0  0  0  0  0  0  0  0
   -0.7500    1.2990    0.0000 C   0  0  0  0  0  0  0  0  0  0  0  0
   -1.5000    0.0000    0.0000 C   0  0  0  0  0  0  0  0  0  0  0  0
   -0.7500   -1.2990    0.0000 C   0  0  0  0  0  0  0  0  0  0  0  0
    2.9918   -2.7549    0.0000 C   0  0  0  0  0  0  0  0  0  0  0  0
    3.9955   -1.6402    0.0000 O   0  0  0  0  0  0  0  0  0  0  0  0
    7.4288   -1.8404    0.0000 C   0  0  0  0  0  0  0  0  0  0  0  0
  1  2  1  0
  2  3  1  0
  3  4  2  0
  4  5  1  0
  5  6  2  0
  6  7  1  0
  7  8  2  0
  8  9  1  0
  9 10  2  0
 10 11  1  0
 11 12  1  0
 12 13  2  0
 13 14  1  0
 14 15  2  0
 15 16  1  0
 16 17  2  0
 17 18  1  0
 18 19  2  0
 19 20  1  0
 20 21  2  0
 15 22  1  0
 22 23  2  0
  6 24  1  0
 24  3  1  0
 11  7  1  0
 22 12  1  0
 21 16  1  0
M  END
>  <Title>  (611) 
idAAXMgen7

$$$$

     RDKit          2D

 44 50  0  0  0  0  0  0  0  0999 V2000
    8.1048   -5.7068    0.0000 C   0  0  0  0  0  0  0  0  0  0  0  0
    8.5683   -4.2803    0.0000 O   0  0  0  0  0  0  0  0  0  0  0  0
    7.5646   -3.1655    0.0000 C   0  0  0  0  0  0  0  0  0  0  0  0
    7.8765   -1.6983    0.0000 C   0  0  0  0  0  0  0  0  0  0  0  0
    6.5774   -0.9483    0.0000 C   0  0  0  0  0  0  0  0  0  0  0  0
    5.4627   -1.9520    0.0000 C   0  0  0  0  0  0  0  0  0  0  0  0
    3.9955   -1.6402    0.0000 C   0  0  0  0  0  0  0  0  0  0  0  0
    2.9918   -2.7549    0.0000 C   0  0  0  0  0  0  0  0  0  0  0  0
    3.3037   -4.2221    0.0000 N   0  0  0  0  0  0  0  0  0  0  0  0
    2.0046   -4.9721    0.0000 N   0  0  0  0  0  0  0  0  0  0  0  0
    0.8899   -3.9684    0.0000 N   0  0  0  0  0  0  0  0  0  0  0  0
    1.5000   -2.5981    0.0000 N   0  0  0  0  0  0  0  0  0  0  0  0
    0.7500   -1.2990    0.0000 C   0  0  0  0  0  0  0  0  0  0  0  0
    1.5000    0.0000    0.0000 C   0  0  0  0  0  0  0  0  0  0  0  0
    0.7500    1.2990    0.0000 C   0  0  0  0  0  0  0  0  0  0  0  0
   -0.7500    1.2990    0.0000 C   0  0  0  0  0  0  0  0  0  0  0  0
   -1.5000    2.5981    0.0000 C   0  0  0  0  0  0  0  0  0  0  0  0
   -0.7500    3.8971    0.0000 C   0  0  0  0  0  0  0  0  0  0  0  0
   -1.5000    5.1962    0.0000 C   0  0  0  0  0  0  0  0  0  0  0  0
   -3.0000    5.1962    0.0000 C   0  0  0  0  0  0  0  0  0  0  0  0
   -3.7500    3.8971    0.0000 C   0  0  0  0  0  0  0  0  0  0  0  0
   -3.0000    2.5981    0.0000 C   0  0  0  0  0  0  0  0  0  0  0  0
   -1.5000    0.0000    0.0000 C   0  0  0  0  0  0  0  0  0  0  0  0
   -0.7500   -1.2990    0.0000 C   0  0  0  0  0  0  0  0  0  0  0  0
   -1.5000   -2.5981    0.0000 C   0  0  0  0  0  0  0  0  0  0  0  0
   -0.7500   -3.8971    0.0000 C   0  0  0  0  0  0  0  0  0  0  0  0
   -1.5000   -5.1962    0.0000 C   0  0  0  0  0  0  0  0  0  0  0  0
   -3.0000   -5.1962    0.0000 C   0  0  0  0  0  0  0  0  0  0  0  0
   -3.7500   -6.4952    0.0000 C   0  0  0  0  0  0  0  0  0  0  0  0
   -3.0000   -7.7942    0.0000 C   0  0  0  0  0  0  0  0  0  0  0  0
   -3.7500   -9.0933    0.0000 C   0  0  0  0  0  0  0  0  0  0  0  0
   -5.2500   -9.0933    0.0000 C   0  0  0  0  0  0  0  0  0  0  0  0
   -6.0000   -7.7942    0.0000 C   0  0  0  0  0  0  0  0  0  0  0  0
   -5.2500   -6.4952    0.0000 C   0  0  0  0  0  0  0  0  0  0  0  0
   -3.7500   -3.8971    0.0000 C   0  0  0  0  0  0  0  0  0  0  0  0
   -3.0000   -2.5981    0.0000 C   0  0  0  0  0  0  0  0  0  0  0  0
   -3.7500   -1.2990    0.0000 C   0  0  0  0  0  0  0  0  0  0  0  0
   -3.1399    0.0713    0.0000 C   0  0  0  0  0  0  0  0  0  0  0  0
   -4.2546    1.0750    0.0000 C   0  0  0  0  0  0  0  0  0  0  0  0
   -5.5537    0.3250    0.0000 C   0  0  0  0  0  0  0  0  0  0  0  0
   -6.9240    0.9351    0.0000 C   0  0  0  0  0  0  0  0  0  0  0  0
   -5.2418   -1.1422    0.0000 C   0  0  0  0  0  0  0  0  0  0  0  0
   -6.2455   -2.2570    0.0000 O   0  0  0  0  0  0  0  0  0  0  0  0
    6.0728   -3.3223    0.0000 N   0  0  0  0  0  0  0  0  0  0  0  0
  1  2  1  0
  2  3  1  0
  3  4  2  0
  4  5  1  0
  5  6  2  0
  6  7  1  0
  7  8  1  0
  8  9  2  0
  9 10  1  0
 10 11  2  0
 11 12  1  0
 12 13  1  0
 13 14  2  0
 14 15  1  0
 15 16  2  0
 16 17  1  0
 17 18  2  0
 18 19  1  0
 19 20  2  0
 20 21  1  0
 21 22  2  0
 16 23  1  0
 23 24  2  0
 24 25  1  0
 25 26  2  0
 26 27  1  0
 27 28  2  0
 28 29  1  0
 29 30  2  0
 30 31  1  0
 31 32  2  0
 32 33  1  0
 33 34  2  0
 28 35  1  0
 35 36  2  0
 36 37  1  0
 37 38  2  0
 38 39  1  0
 39 40  2  0
 40 41  1  0
 40 42  1  0
 42 43  2  0
  6 44  1  0
 44  3  1  0
 12  8  1  0
 24 13  1  0
 36 25  1  0
 42 37  1  0
 22 17  1  0
 34 29  1  0
M  END
>  <Title>  (612) 
idAAXNgen7

$$$$

     RDKit          2D

 31 35  0  0  0  0  0  0  0  0999 V2000
   -1.2266    3.6245    0.0000 C   0  0  0  0  0  0  0  0  0  0  0  0
    0.1437    3.0144    0.0000 C   0  0  0  0  0  0  0  0  0  0  0  0
    0.4556    1.5472    0.0000 C   0  0  0  0  0  0  0  0  0  0  0  0
    1.9474    1.3904    0.0000 C   0  0  0  0  0  0  0  0  0  0  0  0
    2.5575    2.7607    0.0000 C   0  0  0  0  0  0  0  0  0  0  0  0
    4.0247    3.0725    0.0000 N   0  0  0  0  0  0  0  0  0  0  0  0
    4.6348    4.4429    0.0000 N   0  0  0  0  0  0  0  0  0  0  0  0
    6.1266    4.2861    0.0000 N   0  0  0  0  0  0  0  0  0  0  0  0
    6.4385    2.8189    0.0000 N   0  0  0  0  0  0  0  0  0  0  0  0
    5.1394    2.0689    0.0000 C   0  0  0  0  0  0  0  0  0  0  0  0
    4.9826    0.5771    0.0000 C   0  0  0  0  0  0  0  0  0  0  0  0
    6.0974   -0.4266    0.0000 C   0  0  0  0  0  0  0  0  0  0  0  0
    5.4873   -1.7969    0.0000 C   0  0  0  0  0  0  0  0  0  0  0  0
    3.9955   -1.6402    0.0000 C   0  0  0  0  0  0  0  0  0  0  0  0
    2.9918   -2.7549    0.0000 N   0  0  0  0  0  0  0  0  0  0  0  0
    1.5000   -2.5981    0.0000 N   0  0  0  0  0  0  0  0  0  0  0  0
    0.8899   -3.9684    0.0000 N   0  0  0  0  0  0  0  0  0  0  0  0
    2.0046   -4.9721    0.0000 N   0  0  0  0  0  0  0  0  0  0  0  0
    3.3037   -4.2221    0.0000 C   0  0  0  0  0  0  0  0  0  0  0  0
    4.6740   -4.8322    0.0000 C   0  0  0  0  0  0  0  0  0  0  0  0
    5.8875   -3.9505    0.0000 C   0  0  0  0  0  0  0  0  0  0  0  0
    7.2578   -4.5606    0.0000 C   0  0  0  0  0  0  0  0  0  0  0  0
    7.4146   -6.0524    0.0000 C   0  0  0  0  0  0  0  0  0  0  0  0
    8.7849   -6.6625    0.0000 C   0  0  0  0  0  0  0  0  0  0  0  0
    6.2011   -6.9341    0.0000 C   0  0  0  0  0  0  0  0  0  0  0  0
    6.3579   -8.4259    0.0000 O   0  0  0  0  0  0  0  0  0  0  0  0
    4.8308   -6.3240    0.0000 N   0  0  0  0  0  0  0  0  0  0  0  0
    3.6836   -0.1729    0.0000 C   0  0  0  0  0  0  0  0  0  0  0  0
    2.3133    0.4372    0.0000 O   0  0  0  0  0  0  0  0  0  0  0  0
    1.4428    3.7644    0.0000 C   0  0  0  0  0  0  0  0  0  0  0  0
    1.5996    5.2562    0.0000 O   0  0  0  0  0  0  0  0  0  0  0  0
  1  2  1  0
  2  3  2  0
  3  4  1  0
  4  5  2  0
  5  6  1  0
  6  7  1  0
  7  8  2  0
  8  9  1  0
  9 10  2  0
 10 11  1  0
 11 12  2  0
 12 13  1  0
 13 14  2  0
 14 15  1  0
 15 16  1  0
 16 17  2  0
 17 18  1  0
 18 19  2  0
 19 20  1  0
 20 21  2  0
 21 22  1  0
 22 23  2  0
 23 24  1  0
 23 25  1  0
 25 26  2  0
 25 27  1  0
 14 28  1  0
 28 29  2  0
  5 30  1  0
 30 31  2  0
 30  2  1  0
 10  6  1  0
 28 11  1  0
 19 15  1  0
 27 20  1  0
M  END
>  <Title>  (613) 
idAAXOgen7

$$$$

     RDKit          2D

 34 38  0  0  0  0  0  0  0  0999 V2000
    3.0000    0.0000    0.0000 C   0  0  0  0  0  0  0  0  0  0  0  0
    1.5000    0.0000    0.0000 C   0  0  0  0  0  0  0  0  0  0  0  0
    0.7500   -1.2990    0.0000 C   0  0  0  0  0  0  0  0  0  0  0  0
   -0.7500   -1.2990    0.0000 C   0  0  0  0  0  0  0  0  0  0  0  0
   -1.5000    0.0000    0.0000 C   0  0  0  0  0  0  0  0  0  0  0  0
   -3.0000    0.0000    0.0000 C   0  0  0  0  0  0  0  0  0  0  0  0
   -3.8817   -1.2135    0.0000 N   0  0  0  0  0  0  0  0  0  0  0  0
   -5.3083   -0.7500    0.0000 N   0  0  0  0  0  0  0  0  0  0  0  0
   -5.3083    0.7500    0.0000 N   0  0  0  0  0  0  0  0  0  0  0  0
   -3.8817    1.2135    0.0000 N   0  0  0  0  0  0  0  0  0  0  0  0
   -3.4182    2.6401    0.0000 C   0  0  0  0  0  0  0  0  0  0  0  0
   -1.9509    2.9520    0.0000 C   0  0  0  0  0  0  0  0  0  0  0  0
   -1.4874    4.3786    0.0000 C   0  0  0  0  0  0  0  0  0  0  0  0
   -2.4911    5.4933    0.0000 C   0  0  0  0  0  0  0  0  0  0  0  0
   -2.0276    6.9199    0.0000 C   0  0  0  0  0  0  0  0  0  0  0  0
   -0.5604    7.2317    0.0000 C   0  0  0  0  0  0  0  0  0  0  0  0
   -0.0968    8.6583    0.0000 C   0  0  0  0  0  0  0  0  0  0  0  0
   -1.1005    9.7730    0.0000 C   0  0  0  0  0  0  0  0  0  0  0  0
   -2.5677    9.4612    0.0000 C   0  0  0  0  0  0  0  0  0  0  0  0
   -3.0313    8.0346    0.0000 C   0  0  0  0  0  0  0  0  0  0  0  0
   -3.9583    5.1814    0.0000 C   0  0  0  0  0  0  0  0  0  0  0  0
   -4.4218    3.7548    0.0000 C   0  0  0  0  0  0  0  0  0  0  0  0
   -5.8891    3.4430    0.0000 C   0  0  0  0  0  0  0  0  0  0  0  0
   -6.8928    4.5577    0.0000 C   0  0  0  0  0  0  0  0  0  0  0  0
   -8.3600    4.2458    0.0000 C   0  0  0  0  0  0  0  0  0  0  0  0
   -8.8235    2.8192    0.0000 C   0  0  0  0  0  0  0  0  0  0  0  0
  -10.2907    2.5074    0.0000 C   0  0  0  0  0  0  0  0  0  0  0  0
  -10.7543    1.0808    0.0000 O   0  0  0  0  0  0  0  0  0  0  0  0
  -11.2944    3.6221    0.0000 N   0  0  0  0  0  0  0  0  0  0  0  0
  -12.7617    3.3102    0.0000 O   0  0  0  0  0  0  0  0  0  0  0  0
   -7.8198    1.7045    0.0000 C   0  0  0  0  0  0  0  0  0  0  0  0
   -6.3526    2.0164    0.0000 C   0  0  0  0  0  0  0  0  0  0  0  0
   -0.7500    1.2990    0.0000 C   0  0  0  0  0  0  0  0  0  0  0  0
    0.7500    1.2990    0.0000 N   0  0  0  0  0  0  0  0  0  0  0  0
  1  2  1  0
  2  3  2  0
  3  4  1  0
  4  5  2  0
  5  6  1  0
  6  7  2  0
  7  8  1  0
  8  9  2  0
  9 10  1  0
 10 11  1  0
 11 12  2  0
 12 13  1  0
 13 14  2  0
 14 15  1  0
 15 16  2  0
 16 17  1  0
 17 18  2  0
 18 19  1  0
 19 20  2  0
 14 21  1  0
 21 22  2  0
 22 23  1  0
 23 24  2  0
 24 25  1  0
 25 26  2  0
 26 27  1  0
 27 28  2  0
 27 29  1  0
 29 30  1  0
 26 31  1  0
 31 32  1  0
  5 33  1  0
 33 34  1  0
 34  2  1  0
 10  6  1  0
 22 11  1  0
 32 23  1  0
 20 15  1  0
M  END
>  <Title>  (614) 
idAAXPgen7

$$$$

     RDKit          2D

 36 40  0  0  0  0  0  0  0  0999 V2000
    0.7500   -9.0933    0.0000 C   0  0  0  0  0  0  0  0  0  0  0  0
    1.5000   -7.7942    0.0000 C   0  0  0  0  0  0  0  0  0  0  0  0
    3.0000   -7.7942    0.0000 O   0  0  0  0  0  0  0  0  0  0  0  0
    0.7500   -6.4952    0.0000 N   0  0  0  0  0  0  0  0  0  0  0  0
    1.5000   -5.1962    0.0000 C   0  0  0  0  0  0  0  0  0  0  0  0
    3.0000   -5.1962    0.0000 O   0  0  0  0  0  0  0  0  0  0  0  0
    0.7500   -3.8971    0.0000 C   0  0  0  0  0  0  0  0  0  0  0  0
    1.5000   -2.5981    0.0000 C   0  0  0  0  0  0  0  0  0  0  0  0
    0.7500   -1.2990    0.0000 C   0  0  0  0  0  0  0  0  0  0  0  0
    1.5000    0.0000    0.0000 C   0  0  0  0  0  0  0  0  0  0  0  0
    0.7500    1.2990    0.0000 C   0  0  0  0  0  0  0  0  0  0  0  0
   -0.7500    1.2990    0.0000 C   0  0  0  0  0  0  0  0  0  0  0  0
   -1.5000    2.5981    0.0000 C   0  0  0  0  0  0  0  0  0  0  0  0
   -2.9918    2.7549    0.0000 N   0  0  0  0  0  0  0  0  0  0  0  0
   -3.3037    4.2221    0.0000 N   0  0  0  0  0  0  0  0  0  0  0  0
   -2.0046    4.9721    0.0000 N   0  0  0  0  0  0  0  0  0  0  0  0
   -0.8899    3.9684    0.0000 N   0  0  0  0  0  0  0  0  0  0  0  0
    0.5773    4.2803    0.0000 C   0  0  0  0  0  0  0  0  0  0  0  0
    1.5810    3.1655    0.0000 C   0  0  0  0  0  0  0  0  0  0  0  0
    3.0482    3.4774    0.0000 C   0  0  0  0  0  0  0  0  0  0  0  0
    3.5118    4.9040    0.0000 C   0  0  0  0  0  0  0  0  0  0  0  0
    4.9790    5.2159    0.0000 C   0  0  0  0  0  0  0  0  0  0  0  0
    5.9827    4.1011    0.0000 C   0  0  0  0  0  0  0  0  0  0  0  0
    7.4499    4.4130    0.0000 C   0  0  0  0  0  0  0  0  0  0  0  0
    7.9134    5.8396    0.0000 C   0  0  0  0  0  0  0  0  0  0  0  0
    6.9097    6.9543    0.0000 C   0  0  0  0  0  0  0  0  0  0  0  0
    5.4425    6.6424    0.0000 C   0  0  0  0  0  0  0  0  0  0  0  0
    2.5081    6.0187    0.0000 C   0  0  0  0  0  0  0  0  0  0  0  0
    1.0409    5.7068    0.0000 C   0  0  0  0  0  0  0  0  0  0  0  0
   -1.5000    0.0000    0.0000 C   0  0  0  0  0  0  0  0  0  0  0  0
   -0.7500   -1.2990    0.0000 C   0  0  0  0  0  0  0  0  0  0  0  0
   -0.7500   -3.8971    0.0000 N   0  0  0  0  0  0  0  0  0  0  0  0
   -1.6317   -5.1106    0.0000 C   0  0  0  0  0  0  0  0  0  0  0  0
   -3.0583   -4.6471    0.0000 N   0  0  0  0  0  0  0  0  0  0  0  0
   -3.0583   -3.1471    0.0000 N   0  0  0  0  0  0  0  0  0  0  0  0
   -1.6317   -2.6836    0.0000 N   0  0  0  0  0  0  0  0  0  0  0  0
  1  2  1  0
  2  3  2  0
  2  4  1  0
  4  5  1  0
  5  6  2  0
  5  7  1  0
  7  8  1  0
  8  9  1  0
  9 10  2  0
 10 11  1  0
 11 12  2  0
 12 13  1  0
 13 14  2  0
 14 15  1  0
 15 16  2  0
 16 17  1  0
 17 18  1  0
 18 19  2  0
 19 20  1  0
 20 21  2  0
 21 22  1  0
 22 23  2  0
 23 24  1  0
 24 25  2  0
 25 26  1  0
 26 27  2  0
 21 28  1  0
 28 29  2  0
 12 30  1  0
 30 31  2  0
  7 32  1  0
 32 33  1  0
 33 34  2  0
 34 35  1  0
 35 36  2  0
 31  9  1  0
 36 32  1  0
 17 13  1  0
 29 18  1  0
 27 22  1  0
M  END
>  <Title>  (615) 
idAAXQgen7

$$$$

     RDKit          2D

 30 34  0  0  0  0  0  0  0  0999 V2000
    9.5879    0.4297    0.0000 C   0  0  0  0  0  0  0  0  0  0  0  0
    8.1207    0.7415    0.0000 O   0  0  0  0  0  0  0  0  0  0  0  0
    7.1170   -0.3732    0.0000 C   0  0  0  0  0  0  0  0  0  0  0  0
    5.6252   -0.2164    0.0000 C   0  0  0  0  0  0  0  0  0  0  0  0
    5.0151   -1.5867    0.0000 C   0  0  0  0  0  0  0  0  0  0  0  0
    6.1298   -2.5904    0.0000 C   0  0  0  0  0  0  0  0  0  0  0  0
    5.9730   -4.0822    0.0000 C   0  0  0  0  0  0  0  0  0  0  0  0
    7.0877   -5.0859    0.0000 N   0  0  0  0  0  0  0  0  0  0  0  0
    6.4776   -6.4562    0.0000 N   0  0  0  0  0  0  0  0  0  0  0  0
    4.9858   -6.2994    0.0000 N   0  0  0  0  0  0  0  0  0  0  0  0
    4.6740   -4.8322    0.0000 N   0  0  0  0  0  0  0  0  0  0  0  0
    3.3037   -4.2221    0.0000 C   0  0  0  0  0  0  0  0  0  0  0  0
    2.0046   -4.9721    0.0000 C   0  0  0  0  0  0  0  0  0  0  0  0
    0.8899   -3.9684    0.0000 C   0  0  0  0  0  0  0  0  0  0  0  0
    1.5000   -2.5981    0.0000 C   0  0  0  0  0  0  0  0  0  0  0  0
    0.7500   -1.2990    0.0000 C   0  0  0  0  0  0  0  0  0  0  0  0
    1.5000    0.0000    0.0000 C   0  0  0  0  0  0  0  0  0  0  0  0
    0.7500    1.2990    0.0000 C   0  0  0  0  0  0  0  0  0  0  0  0
   -0.7500    1.2990    0.0000 C   0  0  0  0  0  0  0  0  0  0  0  0
   -1.5000    2.5981    0.0000 C   0  0  0  0  0  0  0  0  0  0  0  0
   -0.7500    3.8971    0.0000 C   0  0  0  0  0  0  0  0  0  0  0  0
   -1.5000    5.1962    0.0000 C   0  0  0  0  0  0  0  0  0  0  0  0
   -3.0000    5.1962    0.0000 C   0  0  0  0  0  0  0  0  0  0  0  0
   -3.7500    3.8971    0.0000 C   0  0  0  0  0  0  0  0  0  0  0  0
   -3.0000    2.5981    0.0000 C   0  0  0  0  0  0  0  0  0  0  0  0
   -1.5000    0.0000    0.0000 C   0  0  0  0  0  0  0  0  0  0  0  0
   -0.7500   -1.2990    0.0000 C   0  0  0  0  0  0  0  0  0  0  0  0
    2.9918   -2.7549    0.0000 C   0  0  0  0  0  0  0  0  0  0  0  0
    3.9955   -1.6402    0.0000 O   0  0  0  0  0  0  0  0  0  0  0  0
    7.4288   -1.8404    0.0000 C   0  0  0  0  0  0  0  0  0  0  0  0
  1  2  1  0
  2  3  1  0
  3  4  2  0
  4  5  1  0
  5  6  2  0
  6  7  1  0
  7  8  2  0
  8  9  1  0
  9 10  2  0
 10 11  1  0
 11 12  1  0
 12 13  2  0
 13 14  1  0
 14 15  2  0
 15 16  1  0
 16 17  2  0
 17 18  1  0
 18 19  2  0
 19 20  1  0
 20 21  2  0
 21 22  1  0
 22 23  2  0
 23 24  1  0
 24 25  2  0
 19 26  1  0
 26 27  2  0
 15 28  1  0
 28 29  2  0
  6 30  1  0
 30  3  1  0
 11  7  1  0
 28 12  1  0
 27 16  1  0
 25 20  1  0
M  END
>  <Title>  (616) 
idAAXRgen7

$$$$

     RDKit          2D

 47 52  0  0  0  0  0  0  0  0999 V2000
    6.2286   -2.5981    0.0000 C   0  0  0  0  0  0  0  0  0  0  0  0
    5.4786   -1.2990    0.0000 C   0  0  0  0  0  0  0  0  0  0  0  0
    6.2286   -0.0000    0.0000 O   0  0  0  0  0  0  0  0  0  0  0  0
    3.9786   -1.2990    0.0000 N   0  0  0  0  0  0  0  0  0  0  0  0
    3.2286   -0.0000    0.0000 C   0  0  0  0  0  0  0  0  0  0  0  0
    3.9786    1.2990    0.0000 O   0  0  0  0  0  0  0  0  0  0  0  0
    1.7286    0.0000    0.0000 C   0  0  0  0  0  0  0  0  0  0  0  0
    1.0777    1.3515    0.0000 C   0  0  0  0  0  0  0  0  0  0  0  0
   -0.3846    1.6852    0.0000 C   0  0  0  0  0  0  0  0  0  0  0  0
   -1.5574    0.7500    0.0000 C   0  0  0  0  0  0  0  0  0  0  0  0
   -2.9088    1.4008    0.0000 C   0  0  0  0  0  0  0  0  0  0  0  0
   -4.1482    0.5558    0.0000 O   0  0  0  0  0  0  0  0  0  0  0  0
   -3.0209    2.8966    0.0000 N   0  0  0  0  0  0  0  0  0  0  0  0
   -4.3724    3.5475    0.0000 C   0  0  0  0  0  0  0  0  0  0  0  0
   -5.6933    2.8367    0.0000 N   0  0  0  0  0  0  0  0  0  0  0  0
   -6.7775    3.8732    0.0000 C   0  0  0  0  0  0  0  0  0  0  0  0
   -8.2534    3.6054    0.0000 C   0  0  0  0  0  0  0  0  0  0  0  0
   -8.7594    2.1933    0.0000 O   0  0  0  0  0  0  0  0  0  0  0  0
   -9.2233    4.7497    0.0000 N   0  0  0  0  0  0  0  0  0  0  0  0
  -10.6992    4.4818    0.0000 C   0  0  0  0  0  0  0  0  0  0  0  0
  -11.3500    3.1304    0.0000 N   0  0  0  0  0  0  0  0  0  0  0  0
  -12.8364    3.3317    0.0000 C   0  0  0  0  0  0  0  0  0  0  0  0
  -13.1043    4.8076    0.0000 N   0  0  0  0  0  0  0  0  0  0  0  0
  -11.7834    5.5184    0.0000 N   0  0  0  0  0  0  0  0  0  0  0  0
  -11.5820    7.0048    0.0000 C   0  0  0  0  0  0  0  0  0  0  0  0
  -10.1941    7.5737    0.0000 C   0  0  0  0  0  0  0  0  0  0  0  0
   -9.9927    9.0601    0.0000 C   0  0  0  0  0  0  0  0  0  0  0  0
  -11.1793    9.9777    0.0000 C   0  0  0  0  0  0  0  0  0  0  0  0
  -12.5673    9.4089    0.0000 C   0  0  0  0  0  0  0  0  0  0  0  0
  -12.7686    7.9224    0.0000 C   0  0  0  0  0  0  0  0  0  0  0  0
   -6.1267    5.2247    0.0000 N   0  0  0  0  0  0  0  0  0  0  0  0
   -4.6402    5.0234    0.0000 C   0  0  0  0  0  0  0  0  0  0  0  0
   -3.6036    6.1075    0.0000 C   0  0  0  0  0  0  0  0  0  0  0  0
   -2.1464    5.7519    0.0000 C   0  0  0  0  0  0  0  0  0  0  0  0
   -1.1098    6.8361    0.0000 C   0  0  0  0  0  0  0  0  0  0  0  0
   -1.5304    8.2759    0.0000 C   0  0  0  0  0  0  0  0  0  0  0  0
   -0.4939    9.3601    0.0000 C   0  0  0  0  0  0  0  0  0  0  0  0
    0.9634    9.0045    0.0000 C   0  0  0  0  0  0  0  0  0  0  0  0
    2.0000   10.0887    0.0000 C   0  0  0  0  0  0  0  0  0  0  0  0
    1.5793   11.5285    0.0000 C   0  0  0  0  0  0  0  0  0  0  0  0
    0.1221   11.8841    0.0000 C   0  0  0  0  0  0  0  0  0  0  0  0
   -0.9145   10.7999    0.0000 C   0  0  0  0  0  0  0  0  0  0  0  0
   -2.9877    8.6315    0.0000 C   0  0  0  0  0  0  0  0  0  0  0  0
   -4.0243    7.5474    0.0000 C   0  0  0  0  0  0  0  0  0  0  0  0
   -1.5574   -0.7500    0.0000 C   0  0  0  0  0  0  0  0  0  0  0  0
   -0.3846   -1.6852    0.0000 C   0  0  0  0  0  0  0  0  0  0  0  0
    1.0777   -1.3515    0.0000 C   0  0  0  0  0  0  0  0  0  0  0  0
  1  2  1  0
  2  3  2  0
  2  4  1  0
  4  5  1  0
  5  6  2  0
  5  7  1  0
  7  8  1  0
  8  9  2  0
  9 10  1  0
 10 11  1  0
 11 12  2  0
 11 13  1  0
 13 14  1  0
 14 15  2  0
 15 16  1  0
 16 17  1  0
 17 18  2  0
 17 19  1  0
 19 20  1  0
 20 21  2  0
 21 22  1  0
 22 23  2  0
 23 24  1  0
 24 25  1  0
 25 26  2  0
 26 27  1  0
 27 28  2  0
 28 29  1  0
 29 30  2  0
 16 31  1  0
 31 32  2  0
 32 33  1  0
 33 34  2  0
 34 35  1  0
 35 36  2  0
 36 37  1  0
 37 38  2  0
 38 39  1  0
 39 40  2  0
 40 41  1  0
 41 42  2  0
 36 43  1  0
 43 44  2  0
 10 45  1  0
 45 46  1  0
 46 47  1  0
 47  7  1  0
 32 14  1  0
 44 33  1  0
 24 20  1  0
 30 25  1  0
 42 37  1  0
M  END
>  <Title>  (617) 
idAAXSgen7

$$$$

     RDKit          2D

 11 11  0  0  0  0  0  0  0  0999 V2000
    4.2098   -1.2990    0.0000 C   0  0  0  0  0  0  0  0  0  0  0  0
    3.4598   -0.0000    0.0000 O   0  0  0  0  0  0  0  0  0  0  0  0
    1.9598    0.0000    0.0000 C   0  0  0  0  0  0  0  0  0  0  0  0
    1.3858   -1.3858    0.0000 C   0  0  0  0  0  0  0  0  0  0  0  0
   -0.0000   -1.9598    0.0000 C   0  0  0  0  0  0  0  0  0  0  0  0
   -1.3858   -1.3858    0.0000 C   0  0  0  0  0  0  0  0  0  0  0  0
   -1.9598    0.0000    0.0000 C   0  0  0  0  0  0  0  0  0  0  0  0
   -1.3858    1.3858    0.0000 C   0  0  0  0  0  0  0  0  0  0  0  0
    0.0000    1.9598    0.0000 C   0  0  0  0  0  0  0  0  0  0  0  0
    1.3858    1.3858    0.0000 C   0  0  0  0  0  0  0  0  0  0  0  0
    2.4465    2.4465    0.0000 O   0  0  0  0  0  0  0  0  0  0  0  0
  1  2  1  0
  2  3  1  0
  3  4  2  0
  4  5  1  0
  5  6  2  0
  6  7  1  0
  7  8  2  0
  8  9  1  0
  9 10  2  0
 10 11  1  0
 10  3  1  0
M  END
>  <Title>  (618) 
idAAXTgen7

$$$$

     RDKit          2D

 30 34  0  0  0  0  0  0  0  0999 V2000
    3.7500   -1.2990    0.0000 C   0  0  0  0  0  0  0  0  0  0  0  0
    3.0000    0.0000    0.0000 O   0  0  0  0  0  0  0  0  0  0  0  0
    1.5000    0.0000    0.0000 C   0  0  0  0  0  0  0  0  0  0  0  0
    0.7500   -1.2990    0.0000 C   0  0  0  0  0  0  0  0  0  0  0  0
   -0.7500   -1.2990    0.0000 C   0  0  0  0  0  0  0  0  0  0  0  0
   -1.5000    0.0000    0.0000 C   0  0  0  0  0  0  0  0  0  0  0  0
   -3.0000    0.0000    0.0000 C   0  0  0  0  0  0  0  0  0  0  0  0
   -3.8817   -1.2135    0.0000 N   0  0  0  0  0  0  0  0  0  0  0  0
   -5.3083   -0.7500    0.0000 N   0  0  0  0  0  0  0  0  0  0  0  0
   -5.3083    0.7500    0.0000 N   0  0  0  0  0  0  0  0  0  0  0  0
   -3.8817    1.2135    0.0000 N   0  0  0  0  0  0  0  0  0  0  0  0
   -3.4182    2.6401    0.0000 C   0  0  0  0  0  0  0  0  0  0  0  0
   -1.9509    2.9520    0.0000 C   0  0  0  0  0  0  0  0  0  0  0  0
   -1.4874    4.3786    0.0000 C   0  0  0  0  0  0  0  0  0  0  0  0
   -2.4911    5.4933    0.0000 C   0  0  0  0  0  0  0  0  0  0  0  0
   -2.0276    6.9199    0.0000 C   0  0  0  0  0  0  0  0  0  0  0  0
   -2.9093    8.1334    0.0000 N   0  0  0  0  0  0  0  0  0  0  0  0
   -2.0276    9.3469    0.0000 N   0  0  0  0  0  0  0  0  0  0  0  0
   -0.6010    8.8834    0.0000 N   0  0  0  0  0  0  0  0  0  0  0  0
   -0.6010    7.3834    0.0000 N   0  0  0  0  0  0  0  0  0  0  0  0
    0.6125    6.5017    0.0000 C   0  0  0  0  0  0  0  0  0  0  0  0
    0.4557    5.0099    0.0000 C   0  0  0  0  0  0  0  0  0  0  0  0
    1.6693    4.1283    0.0000 C   0  0  0  0  0  0  0  0  0  0  0  0
    3.0396    4.7384    0.0000 C   0  0  0  0  0  0  0  0  0  0  0  0
    3.1964    6.2301    0.0000 C   0  0  0  0  0  0  0  0  0  0  0  0
    1.9829    7.1118    0.0000 C   0  0  0  0  0  0  0  0  0  0  0  0
   -3.9583    5.1814    0.0000 C   0  0  0  0  0  0  0  0  0  0  0  0
   -4.4218    3.7548    0.0000 C   0  0  0  0  0  0  0  0  0  0  0  0
   -0.7500    1.2990    0.0000 C   0  0  0  0  0  0  0  0  0  0  0  0
    0.7500    1.2990    0.0000 C   0  0  0  0  0  0  0  0  0  0  0  0
  1  2  1  0
  2  3  1  0
  3  4  2  0
  4  5  1  0
  5  6  2  0
  6  7  1  0
  7  8  2  0
  8  9  1  0
  9 10  2  0
 10 11  1  0
 11 12  1  0
 12 13  2  0
 13 14  1  0
 14 15  2  0
 15 16  1  0
 16 17  2  0
 17 18  1  0
 18 19  2  0
 19 20  1  0
 20 21  1  0
 21 22  2  0
 22 23  1  0
 23 24  2  0
 24 25  1  0
 25 26  2  0
 15 27  1  0
 27 28  2  0
  6 29  1  0
 29 30  2  0
 30  3  1  0
 11  7  1  0
 28 12  1  0
 20 16  1  0
 26 21  1  0
M  END
>  <Title>  (619) 
idAAXUgen7

$$$$

     RDKit          2D

 33 37  0  0  0  0  0  0  0  0999 V2000
    3.7500   -1.2990    0.0000 C   0  0  0  0  0  0  0  0  0  0  0  0
    3.0000    0.0000    0.0000 O   0  0  0  0  0  0  0  0  0  0  0  0
    1.5000    0.0000    0.0000 C   0  0  0  0  0  0  0  0  0  0  0  0
    0.7500   -1.2990    0.0000 C   0  0  0  0  0  0  0  0  0  0  0  0
   -0.7500   -1.2990    0.0000 C   0  0  0  0  0  0  0  0  0  0  0  0
   -1.5000    0.0000    0.0000 C   0  0  0  0  0  0  0  0  0  0  0  0
   -3.0000    0.0000    0.0000 C   0  0  0  0  0  0  0  0  0  0  0  0
   -3.8817   -1.2135    0.0000 N   0  0  0  0  0  0  0  0  0  0  0  0
   -5.3083   -0.7500    0.0000 N   0  0  0  0  0  0  0  0  0  0  0  0
   -5.3083    0.7500    0.0000 N   0  0  0  0  0  0  0  0  0  0  0  0
   -3.8817    1.2135    0.0000 N   0  0  0  0  0  0  0  0  0  0  0  0
   -3.4182    2.6401    0.0000 C   0  0  0  0  0  0  0  0  0  0  0  0
   -1.9509    2.9520    0.0000 C   0  0  0  0  0  0  0  0  0  0  0  0
   -1.4874    4.3786    0.0000 C   0  0  0  0  0  0  0  0  0  0  0  0
   -2.4911    5.4933    0.0000 C   0  0  0  0  0  0  0  0  0  0  0  0
   -2.0276    6.9199    0.0000 C   0  0  0  0  0  0  0  0  0  0  0  0
   -3.0313    8.0346    0.0000 O   0  0  0  0  0  0  0  0  0  0  0  0
   -0.5604    7.2317    0.0000 N   0  0  0  0  0  0  0  0  0  0  0  0
   -0.0968    8.6583    0.0000 C   0  0  0  0  0  0  0  0  0  0  0  0
   -0.9785    9.8718    0.0000 N   0  0  0  0  0  0  0  0  0  0  0  0
   -0.0968   11.0854    0.0000 N   0  0  0  0  0  0  0  0  0  0  0  0
    1.3298   10.6218    0.0000 N   0  0  0  0  0  0  0  0  0  0  0  0
    1.3298    9.1218    0.0000 N   0  0  0  0  0  0  0  0  0  0  0  0
    2.5433    8.2402    0.0000 C   0  0  0  0  0  0  0  0  0  0  0  0
    2.3865    6.7484    0.0000 C   0  0  0  0  0  0  0  0  0  0  0  0
    3.6000    5.8667    0.0000 C   0  0  0  0  0  0  0  0  0  0  0  0
    4.9703    6.4768    0.0000 C   0  0  0  0  0  0  0  0  0  0  0  0
    5.1271    7.9686    0.0000 C   0  0  0  0  0  0  0  0  0  0  0  0
    3.9136    8.8503    0.0000 C   0  0  0  0  0  0  0  0  0  0  0  0
   -3.9583    5.1814    0.0000 C   0  0  0  0  0  0  0  0  0  0  0  0
   -4.4218    3.7548    0.0000 C   0  0  0  0  0  0  0  0  0  0  0  0
   -0.7500    1.2990    0.0000 N   0  0  0  0  0  0  0  0  0  0  0  0
    0.7500    1.2990    0.0000 N   0  0  0  0  0  0  0  0  0  0  0  0
  1  2  1  0
  2  3  1  0
  3  4  2  0
  4  5  1  0
  5  6  2  0
  6  7  1  0
  7  8  2  0
  8  9  1  0
  9 10  2  0
 10 11  1  0
 11 12  1  0
 12 13  2  0
 13 14  1  0
 14 15  2  0
 15 16  1  0
 16 17  2  0
 16 18  1  0
 18 19  1  0
 19 20  2  0
 20 21  1  0
 21 22  2  0
 22 23  1  0
 23 24  1  0
 24 25  2  0
 25 26  1  0
 26 27  2  0
 27 28  1  0
 28 29  2  0
 15 30  1  0
 30 31  2  0
  6 32  1  0
 32 33  2  0
 33  3  1  0
 11  7  1  0
 31 12  1  0
 23 19  1  0
 29 24  1  0
M  END
>  <Title>  (620) 
idAAXVgen7

$$$$

     RDKit          2D

 45 51  0  0  0  0  0  0  0  0999 V2000
    3.0000    0.0000    0.0000 C   0  0  0  0  0  0  0  0  0  0  0  0
    1.5000    0.0000    0.0000 C   0  0  0  0  0  0  0  0  0  0  0  0
    0.7500    1.2990    0.0000 C   0  0  0  0  0  0  0  0  0  0  0  0
   -0.7500    1.2990    0.0000 C   0  0  0  0  0  0  0  0  0  0  0  0
   -1.5000    0.0000    0.0000 C   0  0  0  0  0  0  0  0  0  0  0  0
   -3.0000    0.0000    0.0000 C   0  0  0  0  0  0  0  0  0  0  0  0
   -3.8817   -1.2135    0.0000 N   0  0  0  0  0  0  0  0  0  0  0  0
   -5.3083   -0.7500    0.0000 N   0  0  0  0  0  0  0  0  0  0  0  0
   -5.3083    0.7500    0.0000 N   0  0  0  0  0  0  0  0  0  0  0  0
   -3.8817    1.2135    0.0000 N   0  0  0  0  0  0  0  0  0  0  0  0
   -3.4182    2.6401    0.0000 C   0  0  0  0  0  0  0  0  0  0  0  0
   -1.9509    2.9520    0.0000 C   0  0  0  0  0  0  0  0  0  0  0  0
   -1.4874    4.3786    0.0000 C   0  0  0  0  0  0  0  0  0  0  0  0
   -2.4911    5.4933    0.0000 C   0  0  0  0  0  0  0  0  0  0  0  0
   -2.0276    6.9199    0.0000 N   0  0  0  0  0  0  0  0  0  0  0  0
   -0.5604    7.2317    0.0000 C   0  0  0  0  0  0  0  0  0  0  0  0
    0.4433    6.1170    0.0000 O   0  0  0  0  0  0  0  0  0  0  0  0
   -0.0968    8.6583    0.0000 C   0  0  0  0  0  0  0  0  0  0  0  0
   -0.9785    9.8718    0.0000 N   0  0  0  0  0  0  0  0  0  0  0  0
   -0.0968   11.0854    0.0000 N   0  0  0  0  0  0  0  0  0  0  0  0
    1.3298   10.6218    0.0000 N   0  0  0  0  0  0  0  0  0  0  0  0
    1.3298    9.1218    0.0000 N   0  0  0  0  0  0  0  0  0  0  0  0
    2.5433    8.2402    0.0000 C   0  0  0  0  0  0  0  0  0  0  0  0
    2.3865    6.7484    0.0000 C   0  0  0  0  0  0  0  0  0  0  0  0
    3.6000    5.8667    0.0000 C   0  0  0  0  0  0  0  0  0  0  0  0
    4.9703    6.4768    0.0000 C   0  0  0  0  0  0  0  0  0  0  0  0
    5.1271    7.9686    0.0000 C   0  0  0  0  0  0  0  0  0  0  0  0
    3.9136    8.8503    0.0000 C   0  0  0  0  0  0  0  0  0  0  0  0
   -3.9583    5.1814    0.0000 C   0  0  0  0  0  0  0  0  0  0  0  0
   -4.4218    3.7548    0.0000 C   0  0  0  0  0  0  0  0  0  0  0  0
   -5.8891    3.4430    0.0000 C   0  0  0  0  0  0  0  0  0  0  0  0
   -6.4992    2.0726    0.0000 C   0  0  0  0  0  0  0  0  0  0  0  0
   -7.9910    2.2294    0.0000 C   0  0  0  0  0  0  0  0  0  0  0  0
   -8.3028    3.6967    0.0000 C   0  0  0  0  0  0  0  0  0  0  0  0
   -9.6731    4.3068    0.0000 C   0  0  0  0  0  0  0  0  0  0  0  0
   -9.8299    5.7985    0.0000 C   0  0  0  0  0  0  0  0  0  0  0  0
  -11.2003    6.4086    0.0000 C   0  0  0  0  0  0  0  0  0  0  0  0
  -12.4138    5.5270    0.0000 C   0  0  0  0  0  0  0  0  0  0  0  0
  -12.2570    4.0352    0.0000 C   0  0  0  0  0  0  0  0  0  0  0  0
  -10.8867    3.4251    0.0000 C   0  0  0  0  0  0  0  0  0  0  0  0
   -7.0038    4.4467    0.0000 C   0  0  0  0  0  0  0  0  0  0  0  0
   -6.8470    5.9384    0.0000 O   0  0  0  0  0  0  0  0  0  0  0  0
   -0.7500   -1.2990    0.0000 C   0  0  0  0  0  0  0  0  0  0  0  0
   -1.5000   -2.5981    0.0000 O   0  0  0  0  0  0  0  0  0  0  0  0
    0.7500   -1.2990    0.0000 N   0  0  0  0  0  0  0  0  0  0  0  0
  1  2  1  0
  2  3  2  0
  3  4  1  0
  4  5  2  0
  5  6  1  0
  6  7  2  0
  7  8  1  0
  8  9  2  0
  9 10  1  0
 10 11  1  0
 11 12  2  0
 12 13  1  0
 13 14  2  0
 14 15  1  0
 15 16  1  0
 16 17  2  0
 16 18  1  0
 18 19  2  0
 19 20  1  0
 20 21  2  0
 21 22  1  0
 22 23  1  0
 23 24  2  0
 24 25  1  0
 25 26  2  0
 26 27  1  0
 27 28  2  0
 14 29  1  0
 29 30  2  0
 30 31  1  0
 31 32  2  0
 32 33  1  0
 33 34  2  0
 34 35  1  0
 35 36  2  0
 36 37  1  0
 37 38  2  0
 38 39  1  0
 39 40  2  0
 34 41  1  0
 41 42  2  0
  5 43  1  0
 43 44  2  0
 43 45  1  0
 45  2  1  0
 10  6  1  0
 30 11  1  0
 41 31  1  0
 22 18  1  0
 28 23  1  0
 40 35  1  0
M  END
>  <Title>  (621) 
idAAXWgen7

$$$$

     RDKit          2D

 30 34  0  0  0  0  0  0  0  0999 V2000
    3.0000    0.0000    0.0000 C   0  0  0  0  0  0  0  0  0  0  0  0
    1.5000    0.0000    0.0000 C   0  0  0  0  0  0  0  0  0  0  0  0
    0.7500   -1.2990    0.0000 C   0  0  0  0  0  0  0  0  0  0  0  0
   -0.7500   -1.2990    0.0000 C   0  0  0  0  0  0  0  0  0  0  0  0
   -1.5000    0.0000    0.0000 C   0  0  0  0  0  0  0  0  0  0  0  0
   -3.0000    0.0000    0.0000 C   0  0  0  0  0  0  0  0  0  0  0  0
   -3.8817   -1.2135    0.0000 N   0  0  0  0  0  0  0  0  0  0  0  0
   -5.3083   -0.7500    0.0000 N   0  0  0  0  0  0  0  0  0  0  0  0
   -5.3083    0.7500    0.0000 N   0  0  0  0  0  0  0  0  0  0  0  0
   -3.8817    1.2135    0.0000 N   0  0  0  0  0  0  0  0  0  0  0  0
   -3.4182    2.6401    0.0000 C   0  0  0  0  0  0  0  0  0  0  0  0
   -1.9509    2.9520    0.0000 C   0  0  0  0  0  0  0  0  0  0  0  0
   -1.4874    4.3786    0.0000 C   0  0  0  0  0  0  0  0  0  0  0  0
   -2.4911    5.4933    0.0000 C   0  0  0  0  0  0  0  0  0  0  0  0
   -2.0276    6.9199    0.0000 C   0  0  0  0  0  0  0  0  0  0  0  0
   -0.5604    7.2317    0.0000 C   0  0  0  0  0  0  0  0  0  0  0  0
   -0.0968    8.6583    0.0000 C   0  0  0  0  0  0  0  0  0  0  0  0
   -1.1005    9.7730    0.0000 C   0  0  0  0  0  0  0  0  0  0  0  0
   -2.5677    9.4612    0.0000 C   0  0  0  0  0  0  0  0  0  0  0  0
   -3.0313    8.0346    0.0000 C   0  0  0  0  0  0  0  0  0  0  0  0
   -3.9583    5.1814    0.0000 C   0  0  0  0  0  0  0  0  0  0  0  0
   -4.4218    3.7548    0.0000 C   0  0  0  0  0  0  0  0  0  0  0  0
   -5.8891    3.4430    0.0000 C   0  0  0  0  0  0  0  0  0  0  0  0
   -6.8928    4.5577    0.0000 C   0  0  0  0  0  0  0  0  0  0  0  0
   -8.3600    4.2458    0.0000 C   0  0  0  0  0  0  0  0  0  0  0  0
   -8.8235    2.8192    0.0000 C   0  0  0  0  0  0  0  0  0  0  0  0
   -7.8198    1.7045    0.0000 C   0  0  0  0  0  0  0  0  0  0  0  0
   -6.3526    2.0164    0.0000 C   0  0  0  0  0  0  0  0  0  0  0  0
   -0.7500    1.2990    0.0000 C   0  0  0  0  0  0  0  0  0  0  0  0
    0.7500    1.2990    0.0000 C   0  0  0  0  0  0  0  0  0  0  0  0
  1  2  1  0
  2  3  2  0
  3  4  1  0
  4  5  2  0
  5  6  1  0
  6  7  2  0
  7  8  1  0
  8  9  2  0
  9 10  1  0
 10 11  1  0
 11 12  2  0
 12 13  1  0
 13 14  2  0
 14 15  1  0
 15 16  2  0
 16 17  1  0
 17 18  2  0
 18 19  1  0
 19 20  2  0
 14 21  1  0
 21 22  2  0
 22 23  1  0
 23 24  2  0
 24 25  1  0
 25 26  2  0
 26 27  1  0
 27 28  2  0
  5 29  1  0
 29 30  2  0
 30  2  1  0
 10  6  1  0
 22 11  1  0
 28 23  1  0
 20 15  1  0
M  END
>  <Title>  (622) 
idAAXXgen7

$$$$

     RDKit          2D

  9  9  0  0  0  0  0  0  0  0999 V2000
    3.4598   -0.0000    0.0000 O   0  0  0  0  0  0  0  0  0  0  0  0
    1.9598    0.0000    0.0000 C   0  0  0  0  0  0  0  0  0  0  0  0
    1.3858   -1.3858    0.0000 C   0  0  0  0  0  0  0  0  0  0  0  0
   -0.0000   -1.9598    0.0000 C   0  0  0  0  0  0  0  0  0  0  0  0
   -1.3858   -1.3858    0.0000 C   0  0  0  0  0  0  0  0  0  0  0  0
   -1.9598    0.0000    0.0000 C   0  0  0  0  0  0  0  0  0  0  0  0
   -1.3858    1.3858    0.0000 C   0  0  0  0  0  0  0  0  0  0  0  0
    0.0000    1.9598    0.0000 C   0  0  0  0  0  0  0  0  0  0  0  0
    1.3858    1.3858    0.0000 C   0  0  0  0  0  0  0  0  0  0  0  0
  1  2  1  0
  2  3  2  0
  3  4  1  0
  4  5  2  0
  5  6  1  0
  6  7  2  0
  7  8  1  0
  8  9  2  0
  9  2  1  0
M  END
>  <Title>  (623) 
idAAXYgen7

$$$$

     RDKit          2D

  9  9  0  0  0  0  0  0  0  0999 V2000
    3.7500   -1.2990    0.0000 C   0  0  0  0  0  0  0  0  0  0  0  0
    3.0000    0.0000    0.0000 O   0  0  0  0  0  0  0  0  0  0  0  0
    1.5000    0.0000    0.0000 C   0  0  0  0  0  0  0  0  0  0  0  0
    0.7500   -1.2990    0.0000 C   0  0  0  0  0  0  0  0  0  0  0  0
   -0.7500   -1.2990    0.0000 C   0  0  0  0  0  0  0  0  0  0  0  0
   -1.5000    0.0000    0.0000 C   0  0  0  0  0  0  0  0  0  0  0  0
   -3.0000    0.0000    0.0000 F   0  0  0  0  0  0  0  0  0  0  0  0
   -0.7500    1.2990    0.0000 C   0  0  0  0  0  0  0  0  0  0  0  0
    0.7500    1.2990    0.0000 C   0  0  0  0  0  0  0  0  0  0  0  0
  1  2  1  0
  2  3  1  0
  3  4  2  0
  4  5  1  0
  5  6  2  0
  6  7  1  0
  6  8  1  0
  8  9  2  0
  9  3  1  0
M  END
>  <Title>  (624) 
idAAXZgen7

$$$$

     RDKit          2D

  8  8  0  0  0  0  0  0  0  0999 V2000
    3.7500   -1.2990    0.0000 C   0  0  0  0  0  0  0  0  0  0  0  0
    3.0000    0.0000    0.0000 O   0  0  0  0  0  0  0  0  0  0  0  0
    1.5000    0.0000    0.0000 C   0  0  0  0  0  0  0  0  0  0  0  0
    0.7500   -1.2990    0.0000 C   0  0  0  0  0  0  0  0  0  0  0  0
   -0.7500   -1.2990    0.0000 C   0  0  0  0  0  0  0  0  0  0  0  0
   -1.5000    0.0000    0.0000 C   0  0  0  0  0  0  0  0  0  0  0  0
   -0.7500    1.2990    0.0000 C   0  0  0  0  0  0  0  0  0  0  0  0
    0.7500    1.2990    0.0000 C   0  0  0  0  0  0  0  0  0  0  0  0
  1  2  1  0
  2  3  1  0
  3  4  2  0
  4  5  1  0
  5  6  2  0
  6  7  1  0
  7  8  2  0
  8  3  1  0
M  END
>  <Title>  (625) 
idAAYAgen7

$$$$

     RDKit          2D

 30 33  0  0  0  0  0  0  0  0999 V2000
   -7.5000   -7.7942    0.0000 C   0  0  0  0  0  0  0  0  0  0  0  0
   -8.2500   -6.4952    0.0000 O   0  0  0  0  0  0  0  0  0  0  0  0
   -7.5000   -5.1962    0.0000 C   0  0  0  0  0  0  0  0  0  0  0  0
   -6.0000   -5.1962    0.0000 C   0  0  0  0  0  0  0  0  0  0  0  0
   -5.2500   -3.8971    0.0000 C   0  0  0  0  0  0  0  0  0  0  0  0
   -6.0000   -2.5981    0.0000 C   0  0  0  0  0  0  0  0  0  0  0  0
   -5.2500   -1.2990    0.0000 C   0  0  0  0  0  0  0  0  0  0  0  0
   -6.0000    0.0000    0.0000 C   0  0  0  0  0  0  0  0  0  0  0  0
   -7.5000    0.0000    0.0000 O   0  0  0  0  0  0  0  0  0  0  0  0
   -5.2500    1.2990    0.0000 N   0  0  0  0  0  0  0  0  0  0  0  0
   -6.0000    2.5981    0.0000 C   0  0  0  0  0  0  0  0  0  0  0  0
   -7.4918    2.7549    0.0000 N   0  0  0  0  0  0  0  0  0  0  0  0
   -7.8037    4.2221    0.0000 N   0  0  0  0  0  0  0  0  0  0  0  0
   -6.5046    4.9721    0.0000 N   0  0  0  0  0  0  0  0  0  0  0  0
   -5.3899    3.9684    0.0000 N   0  0  0  0  0  0  0  0  0  0  0  0
   -3.9227    4.2803    0.0000 C   0  0  0  0  0  0  0  0  0  0  0  0
   -2.9190    3.1655    0.0000 C   0  0  0  0  0  0  0  0  0  0  0  0
   -1.4518    3.4774    0.0000 C   0  0  0  0  0  0  0  0  0  0  0  0
   -0.9882    4.9040    0.0000 C   0  0  0  0  0  0  0  0  0  0  0  0
    0.4790    5.2159    0.0000 C   0  0  0  0  0  0  0  0  0  0  0  0
    1.4827    4.1011    0.0000 C   0  0  0  0  0  0  0  0  0  0  0  0
    2.9499    4.4130    0.0000 C   0  0  0  0  0  0  0  0  0  0  0  0
    3.4134    5.8396    0.0000 C   0  0  0  0  0  0  0  0  0  0  0  0
    2.4097    6.9543    0.0000 C   0  0  0  0  0  0  0  0  0  0  0  0
    0.9425    6.6424    0.0000 C   0  0  0  0  0  0  0  0  0  0  0  0
   -1.9919    6.0187    0.0000 C   0  0  0  0  0  0  0  0  0  0  0  0
   -3.4591    5.7068    0.0000 C   0  0  0  0  0  0  0  0  0  0  0  0
   -7.5000   -2.5981    0.0000 C   0  0  0  0  0  0  0  0  0  0  0  0
   -8.2500   -1.2990    0.0000 O   0  0  0  0  0  0  0  0  0  0  0  0
   -8.2500   -3.8971    0.0000 N   0  0  0  0  0  0  0  0  0  0  0  0
  1  2  1  0
  2  3  1  0
  3  4  2  0
  4  5  1  0
  5  6  2  0
  6  7  1  0
  7  8  1  0
  8  9  2  0
  8 10  1  0
 10 11  1  0
 11 12  2  0
 12 13  1  0
 13 14  2  0
 14 15  1  0
 15 16  1  0
 16 17  2  0
 17 18  1  0
 18 19  2  0
 19 20  1  0
 20 21  2  0
 21 22  1  0
 22 23  2  0
 23 24  1  0
 24 25  2  0
 19 26  1  0
 26 27  2  0
  6 28  1  0
 28 29  2  0
 28 30  1  0
 30  3  1  0
 15 11  1  0
 27 16  1  0
 25 20  1  0
M  END
>  <Title>  (626) 
idAAYBgen7

$$$$

     RDKit          2D

 21 22  0  0  0  0  0  0  0  0999 V2000
    3.7500   -1.2990    0.0000 C   0  0  0  0  0  0  0  0  0  0  0  0
    3.0000    0.0000    0.0000 O   0  0  0  0  0  0  0  0  0  0  0  0
    1.5000    0.0000    0.0000 C   0  0  0  0  0  0  0  0  0  0  0  0
    0.7500   -1.2990    0.0000 C   0  0  0  0  0  0  0  0  0  0  0  0
   -0.7500   -1.2990    0.0000 C   0  0  0  0  0  0  0  0  0  0  0  0
   -1.5000    0.0000    0.0000 C   0  0  0  0  0  0  0  0  0  0  0  0
   -3.0000    0.0000    0.0000 C   0  0  0  0  0  0  0  0  0  0  0  0
   -3.7500   -1.2990    0.0000 O   0  0  0  0  0  0  0  0  0  0  0  0
   -3.7500    1.2990    0.0000 N   0  0  0  0  0  0  0  0  0  0  0  0
   -5.2500    1.2990    0.0000 C   0  0  0  0  0  0  0  0  0  0  0  0
   -6.1317    0.0855    0.0000 N   0  0  0  0  0  0  0  0  0  0  0  0
   -7.5583    0.5490    0.0000 C   0  0  0  0  0  0  0  0  0  0  0  0
   -8.7718   -0.3326    0.0000 C   0  0  0  0  0  0  0  0  0  0  0  0
   -8.6150   -1.8244    0.0000 O   0  0  0  0  0  0  0  0  0  0  0  0
  -10.1421    0.2775    0.0000 N   0  0  0  0  0  0  0  0  0  0  0  0
  -11.3556   -0.6042    0.0000 O   0  0  0  0  0  0  0  0  0  0  0  0
   -7.5583    2.0490    0.0000 C   0  0  0  0  0  0  0  0  0  0  0  0
   -6.1317    2.5126    0.0000 C   0  0  0  0  0  0  0  0  0  0  0  0
   -0.7500    1.2990    0.0000 C   0  0  0  0  0  0  0  0  0  0  0  0
   -1.5000    2.5981    0.0000 O   0  0  0  0  0  0  0  0  0  0  0  0
    0.7500    1.2990    0.0000 N   0  0  0  0  0  0  0  0  0  0  0  0
  1  2  1  0
  2  3  1  0
  3  4  2  0
  4  5  1  0
  5  6  2  0
  6  7  1  0
  7  8  2  0
  7  9  1  0
  9 10  1  0
 10 11  2  0
 11 12  1  0
 12 13  1  0
 13 14  2  0
 13 15  1  0
 15 16  1  0
 12 17  1  0
 17 18  1  0
  6 19  1  0
 19 20  2  0
 19 21  1  0
 21  3  1  0
 18 10  1  0
M  END
>  <Title>  (627) 
idAAYCgen7

$$$$

     RDKit          2D

 37 42  0  0  0  0  0  0  0  0999 V2000
    3.0000    0.0000    0.0000 C   0  0  0  0  0  0  0  0  0  0  0  0
    1.5000    0.0000    0.0000 C   0  0  0  0  0  0  0  0  0  0  0  0
    0.7500   -1.2990    0.0000 C   0  0  0  0  0  0  0  0  0  0  0  0
   -0.7500   -1.2990    0.0000 C   0  0  0  0  0  0  0  0  0  0  0  0
   -1.5000    0.0000    0.0000 C   0  0  0  0  0  0  0  0  0  0  0  0
   -3.0000    0.0000    0.0000 C   0  0  0  0  0  0  0  0  0  0  0  0
   -3.8817   -1.2135    0.0000 C   0  0  0  0  0  0  0  0  0  0  0  0
   -5.3083   -0.7500    0.0000 N   0  0  0  0  0  0  0  0  0  0  0  0
   -5.3083    0.7500    0.0000 N   0  0  0  0  0  0  0  0  0  0  0  0
   -3.8817    1.2135    0.0000 N   0  0  0  0  0  0  0  0  0  0  0  0
   -3.4182    2.6401    0.0000 C   0  0  0  0  0  0  0  0  0  0  0  0
   -1.9509    2.9520    0.0000 C   0  0  0  0  0  0  0  0  0  0  0  0
   -1.4874    4.3786    0.0000 C   0  0  0  0  0  0  0  0  0  0  0  0
   -2.4911    5.4933    0.0000 C   0  0  0  0  0  0  0  0  0  0  0  0
   -2.0276    6.9199    0.0000 C   0  0  0  0  0  0  0  0  0  0  0  0
   -3.0313    8.0346    0.0000 O   0  0  0  0  0  0  0  0  0  0  0  0
   -0.5604    7.2317    0.0000 N   0  0  0  0  0  0  0  0  0  0  0  0
   -0.0968    8.6583    0.0000 C   0  0  0  0  0  0  0  0  0  0  0  0
   -0.9785    9.8718    0.0000 N   0  0  0  0  0  0  0  0  0  0  0  0
   -0.0968   11.0854    0.0000 N   0  0  0  0  0  0  0  0  0  0  0  0
    1.3298   10.6218    0.0000 N   0  0  0  0  0  0  0  0  0  0  0  0
    1.3298    9.1218    0.0000 N   0  0  0  0  0  0  0  0  0  0  0  0
    2.5433    8.2402    0.0000 C   0  0  0  0  0  0  0  0  0  0  0  0
    2.5433    6.7402    0.0000 N   0  0  0  0  0  0  0  0  0  0  0  0
    3.9699    6.2766    0.0000 N   0  0  0  0  0  0  0  0  0  0  0  0
    4.8515    7.4902    0.0000 N   0  0  0  0  0  0  0  0  0  0  0  0
    3.9699    8.7037    0.0000 N   0  0  0  0  0  0  0  0  0  0  0  0
    4.4334   10.1303    0.0000 C   0  0  0  0  0  0  0  0  0  0  0  0
    3.4297   11.2450    0.0000 C   0  0  0  0  0  0  0  0  0  0  0  0
    3.8932   12.6716    0.0000 C   0  0  0  0  0  0  0  0  0  0  0  0
    5.3604   12.9834    0.0000 C   0  0  0  0  0  0  0  0  0  0  0  0
    6.3641   11.8687    0.0000 C   0  0  0  0  0  0  0  0  0  0  0  0
    5.9006   10.4421    0.0000 C   0  0  0  0  0  0  0  0  0  0  0  0
   -3.9583    5.1814    0.0000 C   0  0  0  0  0  0  0  0  0  0  0  0
   -4.4218    3.7548    0.0000 C   0  0  0  0  0  0  0  0  0  0  0  0
   -0.7500    1.2990    0.0000 C   0  0  0  0  0  0  0  0  0  0  0  0
    0.7500    1.2990    0.0000 C   0  0  0  0  0  0  0  0  0  0  0  0
  1  2  1  0
  2  3  2  0
  3  4  1  0
  4  5  2  0
  5  6  1  0
  6  7  2  0
  7  8  1  0
  8  9  2  0
  9 10  1  0
 10 11  1  0
 11 12  2  0
 12 13  1  0
 13 14  2  0
 14 15  1  0
 15 16  2  0
 15 17  1  0
 17 18  1  0
 18 19  2  0
 19 20  1  0
 20 21  2  0
 21 22  1  0
 22 23  1  0
 23 24  2  0
 24 25  1  0
 25 26  2  0
 26 27  1  0
 27 28  1  0
 28 29  2  0
 29 30  1  0
 30 31  2  0
 31 32  1  0
 32 33  2  0
 14 34  1  0
 34 35  2  0
  5 36  1  0
 36 37  2  0
 37  2  1  0
 10  6  1  0
 35 11  1  0
 22 18  1  0
 27 23  1  0
 33 28  1  0
M  END
>  <Title>  (628) 
idAAYDgen7

$$$$

     RDKit          2D

 26 28  0  0  0  0  0  0  0  0999 V2000
    3.0000    0.0000    0.0000 C   0  0  0  0  0  0  0  0  0  0  0  0
    1.5000    0.0000    0.0000 C   0  0  0  0  0  0  0  0  0  0  0  0
    0.7500   -1.2990    0.0000 C   0  0  0  0  0  0  0  0  0  0  0  0
   -0.7500   -1.2990    0.0000 C   0  0  0  0  0  0  0  0  0  0  0  0
   -1.5000    0.0000    0.0000 C   0  0  0  0  0  0  0  0  0  0  0  0
   -3.0000    0.0000    0.0000 C   0  0  0  0  0  0  0  0  0  0  0  0
   -3.7500   -1.2990    0.0000 O   0  0  0  0  0  0  0  0  0  0  0  0
   -3.7500    1.2990    0.0000 N   0  0  0  0  0  0  0  0  0  0  0  0
   -5.2500    1.2990    0.0000 C   0  0  0  0  0  0  0  0  0  0  0  0
   -6.1317    0.0855    0.0000 N   0  0  0  0  0  0  0  0  0  0  0  0
   -7.5583    0.5490    0.0000 C   0  0  0  0  0  0  0  0  0  0  0  0
   -7.5583    2.0490    0.0000 N   0  0  0  0  0  0  0  0  0  0  0  0
   -6.1317    2.5126    0.0000 N   0  0  0  0  0  0  0  0  0  0  0  0
   -5.6682    3.9391    0.0000 C   0  0  0  0  0  0  0  0  0  0  0  0
   -4.2009    4.2510    0.0000 C   0  0  0  0  0  0  0  0  0  0  0  0
   -3.7374    5.6776    0.0000 C   0  0  0  0  0  0  0  0  0  0  0  0
   -4.7411    6.7923    0.0000 C   0  0  0  0  0  0  0  0  0  0  0  0
   -4.2776    8.2189    0.0000 C   0  0  0  0  0  0  0  0  0  0  0  0
   -5.2813    9.3336    0.0000 O   0  0  0  0  0  0  0  0  0  0  0  0
   -2.8104    8.5308    0.0000 N   0  0  0  0  0  0  0  0  0  0  0  0
   -2.3468    9.9574    0.0000 O   0  0  0  0  0  0  0  0  0  0  0  0
   -6.2083    6.4805    0.0000 C   0  0  0  0  0  0  0  0  0  0  0  0
   -6.6718    5.0539    0.0000 C   0  0  0  0  0  0  0  0  0  0  0  0
   -0.7500    1.2990    0.0000 C   0  0  0  0  0  0  0  0  0  0  0  0
   -1.5000    2.5981    0.0000 O   0  0  0  0  0  0  0  0  0  0  0  0
    0.7500    1.2990    0.0000 N   0  0  0  0  0  0  0  0  0  0  0  0
  1  2  1  0
  2  3  2  0
  3  4  1  0
  4  5  2  0
  5  6  1  0
  6  7  2  0
  6  8  1  0
  8  9  1  0
  9 10  2  0
 10 11  1  0
 11 12  2  0
 12 13  1  0
 13 14  1  0
 14 15  2  0
 15 16  1  0
 16 17  2  0
 17 18  1  0
 18 19  2  0
 18 20  1  0
 20 21  1  0
 17 22  1  0
 22 23  1  0
  5 24  1  0
 24 25  2  0
 24 26  1  0
 26  2  1  0
 13  9  1  0
 23 14  1  0
M  END
>  <Title>  (629) 
idAAYEgen7

$$$$

     RDKit          2D

 23 26  0  0  0  0  0  0  0  0999 V2000
    3.0000    0.0000    0.0000 C   0  0  0  0  0  0  0  0  0  0  0  0
    1.5000    0.0000    0.0000 C   0  0  0  0  0  0  0  0  0  0  0  0
    0.7500   -1.2990    0.0000 C   0  0  0  0  0  0  0  0  0  0  0  0
   -0.7500   -1.2990    0.0000 C   0  0  0  0  0  0  0  0  0  0  0  0
   -1.5000    0.0000    0.0000 C   0  0  0  0  0  0  0  0  0  0  0  0
   -3.0000    0.0000    0.0000 C   0  0  0  0  0  0  0  0  0  0  0  0
   -3.8817   -1.2135    0.0000 N   0  0  0  0  0  0  0  0  0  0  0  0
   -5.3083   -0.7500    0.0000 N   0  0  0  0  0  0  0  0  0  0  0  0
   -5.3083    0.7500    0.0000 N   0  0  0  0  0  0  0  0  0  0  0  0
   -3.8817    1.2135    0.0000 N   0  0  0  0  0  0  0  0  0  0  0  0
   -3.4182    2.6401    0.0000 C   0  0  0  0  0  0  0  0  0  0  0  0
   -1.9509    2.9520    0.0000 C   0  0  0  0  0  0  0  0  0  0  0  0
   -1.4874    4.3786    0.0000 C   0  0  0  0  0  0  0  0  0  0  0  0
   -2.4911    5.4933    0.0000 C   0  0  0  0  0  0  0  0  0  0  0  0
   -3.9583    5.1814    0.0000 N   0  0  0  0  0  0  0  0  0  0  0  0
   -4.4218    3.7548    0.0000 C   0  0  0  0  0  0  0  0  0  0  0  0
   -5.8891    3.4430    0.0000 N   0  0  0  0  0  0  0  0  0  0  0  0
   -6.4992    2.0726    0.0000 N   0  0  0  0  0  0  0  0  0  0  0  0
   -7.9910    2.2294    0.0000 N   0  0  0  0  0  0  0  0  0  0  0  0
   -8.3028    3.6967    0.0000 N   0  0  0  0  0  0  0  0  0  0  0  0
   -7.0038    4.4467    0.0000 N   0  0  0  0  0  0  0  0  0  0  0  0
   -0.7500    1.2990    0.0000 C   0  0  0  0  0  0  0  0  0  0  0  0
    0.7500    1.2990    0.0000 C   0  0  0  0  0  0  0  0  0  0  0  0
  1  2  1  0
  2  3  2  0
  3  4  1  0
  4  5  2  0
  5  6  1  0
  6  7  2  0
  7  8  1  0
  8  9  2  0
  9 10  1  0
 10 11  1  0
 11 12  2  0
 12 13  1  0
 13 14  2  0
 14 15  1  0
 15 16  2  0
 16 17  1  0
 17 18  1  0
 18 19  2  0
 19 20  1  0
 20 21  2  0
  5 22  1  0
 22 23  1  0
 23  2  1  0
 10  6  1  0
 16 11  1  0
 21 17  1  0
M  END
>  <Title>  (630) 
idAAYFgen7

$$$$

     RDKit          2D

 31 34  0  0  0  0  0  0  0  0999 V2000
    5.6285   -5.6285    0.0000 C   0  0  0  0  0  0  0  0  0  0  0  0
    4.5678   -4.5678    0.0000 C   0  0  0  0  0  0  0  0  0  0  0  0
    3.1189   -4.9560    0.0000 C   0  0  0  0  0  0  0  0  0  0  0  0
    2.0583   -3.8954    0.0000 C   0  0  0  0  0  0  0  0  0  0  0  0
    2.4465   -2.4465    0.0000 C   0  0  0  0  0  0  0  0  0  0  0  0
    1.3858   -1.3858    0.0000 N   0  0  0  0  0  0  0  0  0  0  0  0
    1.9598    0.0000    0.0000 N   0  0  0  0  0  0  0  0  0  0  0  0
    1.3858    1.3858    0.0000 N   0  0  0  0  0  0  0  0  0  0  0  0
    0.0000    1.9598    0.0000 N   0  0  0  0  0  0  0  0  0  0  0  0
    0.0000    3.4598    0.0000 C   0  0  0  0  0  0  0  0  0  0  0  0
    1.2990    4.2098    0.0000 C   0  0  0  0  0  0  0  0  0  0  0  0
    1.2990    5.7098    0.0000 C   0  0  0  0  0  0  0  0  0  0  0  0
    0.0000    6.4598    0.0000 C   0  0  0  0  0  0  0  0  0  0  0  0
   -1.2990    5.7098    0.0000 C   0  0  0  0  0  0  0  0  0  0  0  0
   -1.2990    4.2098    0.0000 C   0  0  0  0  0  0  0  0  0  0  0  0
   -1.3858    1.3858    0.0000 C   0  0  0  0  0  0  0  0  0  0  0  0
   -2.4465    2.4465    0.0000 C   0  0  0  0  0  0  0  0  0  0  0  0
   -1.9598    0.0000    0.0000 C   0  0  0  0  0  0  0  0  0  0  0  0
   -1.3858   -1.3858    0.0000 C   0  0  0  0  0  0  0  0  0  0  0  0
   -0.0000   -1.9598    0.0000 C   0  0  0  0  0  0  0  0  0  0  0  0
   -0.0000   -3.4598    0.0000 C   0  0  0  0  0  0  0  0  0  0  0  0
   -1.2990   -4.2098    0.0000 C   0  0  0  0  0  0  0  0  0  0  0  0
   -1.2990   -5.7098    0.0000 C   0  0  0  0  0  0  0  0  0  0  0  0
   -0.0000   -6.4598    0.0000 C   0  0  0  0  0  0  0  0  0  0  0  0
   -0.0000   -7.9598    0.0000 C   0  0  0  0  0  0  0  0  0  0  0  0
    1.2990   -5.7098    0.0000 C   0  0  0  0  0  0  0  0  0  0  0  0
    2.5981   -6.4598    0.0000 O   0  0  0  0  0  0  0  0  0  0  0  0
    1.2990   -4.2098    0.0000 N   0  0  0  0  0  0  0  0  0  0  0  0
    3.8954   -2.0583    0.0000 C   0  0  0  0  0  0  0  0  0  0  0  0
    4.2836   -0.6094    0.0000 O   0  0  0  0  0  0  0  0  0  0  0  0
    4.9560   -3.1189    0.0000 N   0  0  0  0  0  0  0  0  0  0  0  0
  1  2  1  0
  2  3  2  0
  3  4  1  0
  4  5  2  0
  5  6  1  0
  6  7  1  0
  7  8  2  0
  8  9  1  0
  9 10  1  0
 10 11  2  0
 11 12  1  0
 12 13  2  0
 13 14  1  0
 14 15  2  0
  9 16  1  0
 16 17  1  0
 16 18  2  0
 18 19  1  0
 19 20  2  0
 20 21  1  0
 21 22  2  0
 22 23  1  0
 23 24  2  0
 24 25  1  0
 24 26  1  0
 26 27  2  0
 26 28  1  0
  5 29  1  0
 29 30  2  0
 29 31  1  0
 31  2  1  0
 20  6  1  0
 28 21  1  0
 15 10  1  0
M  END
>  <Title>  (631) 
idAAYGgen7

$$$$

     RDKit          2D

 25 25  0  0  0  0  0  0  0  0999 V2000
    7.2460    0.0000    0.0000 O   0  0  0  0  0  0  0  0  0  0  0  0
    5.7460    0.0000    0.0000 C   0  0  0  0  0  0  0  0  0  0  0  0
    5.5502   -1.4872    0.0000 C   0  0  0  0  0  0  0  0  0  0  0  0
    4.9762   -2.8730    0.0000 C   0  0  0  0  0  0  0  0  0  0  0  0
    4.0630   -4.0630    0.0000 C   0  0  0  0  0  0  0  0  0  0  0  0
    2.8730   -4.9762    0.0000 C   0  0  0  0  0  0  0  0  0  0  0  0
    1.4872   -5.5502    0.0000 C   0  0  0  0  0  0  0  0  0  0  0  0
   -0.0000   -5.7460    0.0000 C   0  0  0  0  0  0  0  0  0  0  0  0
   -1.4872   -5.5502    0.0000 C   0  0  0  0  0  0  0  0  0  0  0  0
   -2.8730   -4.9762    0.0000 C   0  0  0  0  0  0  0  0  0  0  0  0
   -4.0630   -4.0630    0.0000 C   0  0  0  0  0  0  0  0  0  0  0  0
   -4.9762   -2.8730    0.0000 C   0  0  0  0  0  0  0  0  0  0  0  0
   -5.5502   -1.4872    0.0000 C   0  0  0  0  0  0  0  0  0  0  0  0
   -5.7460    0.0000    0.0000 C   0  0  0  0  0  0  0  0  0  0  0  0
   -5.5502    1.4872    0.0000 C   0  0  0  0  0  0  0  0  0  0  0  0
   -4.9762    2.8730    0.0000 C   0  0  0  0  0  0  0  0  0  0  0  0
   -4.0630    4.0630    0.0000 C   0  0  0  0  0  0  0  0  0  0  0  0
   -2.8730    4.9762    0.0000 C   0  0  0  0  0  0  0  0  0  0  0  0
   -1.4872    5.5502    0.0000 C   0  0  0  0  0  0  0  0  0  0  0  0
    0.0000    5.7460    0.0000 C   0  0  0  0  0  0  0  0  0  0  0  0
    1.4872    5.5502    0.0000 C   0  0  0  0  0  0  0  0  0  0  0  0
    2.8730    4.9762    0.0000 C   0  0  0  0  0  0  0  0  0  0  0  0
    4.0630    4.0630    0.0000 C   0  0  0  0  0  0  0  0  0  0  0  0
    4.9762    2.8730    0.0000 C   0  0  0  0  0  0  0  0  0  0  0  0
    5.5502    1.4872    0.0000 C   0  0  0  0  0  0  0  0  0  0  0  0
  1  2  1  0
  2  3  2  0
  3  4  1  0
  4  5  2  0
  5  6  1  0
  6  7  2  0
  7  8  1  0
  8  9  2  0
  9 10  1  0
 10 11  2  0
 11 12  1  0
 12 13  2  0
 13 14  1  0
 14 15  2  0
 15 16  1  0
 16 17  2  0
 17 18  1  0
 18 19  2  0
 19 20  1  0
 20 21  2  0
 21 22  1  0
 22 23  2  0
 23 24  1  0
 24 25  2  0
 25  2  1  0
M  END
>  <Title>  (632) 
idAAYHgen7

$$$$

     RDKit          2D

 29 33  0  0  0  0  0  0  0  0999 V2000
    1.8478   -6.4639    0.0000 C   0  0  0  0  0  0  0  0  0  0  0  0
    2.0046   -4.9721    0.0000 C   0  0  0  0  0  0  0  0  0  0  0  0
    3.3037   -4.2221    0.0000 C   0  0  0  0  0  0  0  0  0  0  0  0
    2.9918   -2.7549    0.0000 C   0  0  0  0  0  0  0  0  0  0  0  0
    1.5000   -2.5981    0.0000 C   0  0  0  0  0  0  0  0  0  0  0  0
    0.7500   -1.2990    0.0000 N   0  0  0  0  0  0  0  0  0  0  0  0
    1.5000    0.0000    0.0000 N   0  0  0  0  0  0  0  0  0  0  0  0
    0.7500    1.2990    0.0000 N   0  0  0  0  0  0  0  0  0  0  0  0
   -0.7500    1.2990    0.0000 N   0  0  0  0  0  0  0  0  0  0  0  0
   -1.5000    0.0000    0.0000 N   0  0  0  0  0  0  0  0  0  0  0  0
   -0.7500   -1.2990    0.0000 N   0  0  0  0  0  0  0  0  0  0  0  0
   -1.5000   -2.5981    0.0000 C   0  0  0  0  0  0  0  0  0  0  0  0
   -0.8899   -3.9684    0.0000 C   0  0  0  0  0  0  0  0  0  0  0  0
   -2.0046   -4.9721    0.0000 C   0  0  0  0  0  0  0  0  0  0  0  0
   -3.3037   -4.2221    0.0000 C   0  0  0  0  0  0  0  0  0  0  0  0
   -4.6740   -4.8322    0.0000 C   0  0  0  0  0  0  0  0  0  0  0  0
   -4.9858   -6.2994    0.0000 N   0  0  0  0  0  0  0  0  0  0  0  0
   -6.4776   -6.4562    0.0000 N   0  0  0  0  0  0  0  0  0  0  0  0
   -7.0877   -5.0859    0.0000 N   0  0  0  0  0  0  0  0  0  0  0  0
   -5.9730   -4.0822    0.0000 N   0  0  0  0  0  0  0  0  0  0  0  0
   -6.1298   -2.5904    0.0000 C   0  0  0  0  0  0  0  0  0  0  0  0
   -4.9163   -1.7087    0.0000 C   0  0  0  0  0  0  0  0  0  0  0  0
   -5.0731   -0.2170    0.0000 C   0  0  0  0  0  0  0  0  0  0  0  0
   -6.4434    0.3932    0.0000 C   0  0  0  0  0  0  0  0  0  0  0  0
   -7.6569   -0.4885    0.0000 C   0  0  0  0  0  0  0  0  0  0  0  0
   -7.5001   -1.9803    0.0000 C   0  0  0  0  0  0  0  0  0  0  0  0
   -2.9918   -2.7549    0.0000 C   0  0  0  0  0  0  0  0  0  0  0  0
   -3.9955   -1.6402    0.0000 O   0  0  0  0  0  0  0  0  0  0  0  0
    0.8899   -3.9684    0.0000 C   0  0  0  0  0  0  0  0  0  0  0  0
  1  2  1  0
  2  3  2  0
  3  4  1  0
  4  5  2  0
  5  6  1  0
  6  7  1  0
  7  8  2  0
  8  9  1  0
  9 10  2  0
 10 11  1  0
 11 12  1  0
 12 13  2  0
 13 14  1  0
 14 15  2  0
 15 16  1  0
 16 17  2  0
 17 18  1  0
 18 19  2  0
 19 20  1  0
 20 21  1  0
 21 22  2  0
 22 23  1  0
 23 24  2  0
 24 25  1  0
 25 26  2  0
 15 27  1  0
 27 28  2  0
  5 29  1  0
 29  2  1  0
 11  6  1  0
 27 12  1  0
 20 16  1  0
 26 21  1  0
M  END
>  <Title>  (633) 
idAAYIgen7

$$$$

     RDKit          2D

 10 10  0  0  0  0  0  0  0  0999 V2000
    3.7500   -1.2990    0.0000 C   0  0  0  0  0  0  0  0  0  0  0  0
    3.0000    0.0000    0.0000 O   0  0  0  0  0  0  0  0  0  0  0  0
    1.5000    0.0000    0.0000 C   0  0  0  0  0  0  0  0  0  0  0  0
    0.7500   -1.2990    0.0000 C   0  0  0  0  0  0  0  0  0  0  0  0
   -0.7500   -1.2990    0.0000 C   0  0  0  0  0  0  0  0  0  0  0  0
   -1.5000    0.0000    0.0000 C   0  0  0  0  0  0  0  0  0  0  0  0
   -3.0000    0.0000    0.0000 C   0  0  0  0  0  0  0  0  0  0  0  0
   -3.7500    1.2990    0.0000 O   0  0  0  0  0  0  0  0  0  0  0  0
   -0.7500    1.2990    0.0000 N   0  0  0  0  0  0  0  0  0  0  0  0
    0.7500    1.2990    0.0000 C   0  0  0  0  0  0  0  0  0  0  0  0
  1  2  1  0
  2  3  1  0
  3  4  2  0
  4  5  1  0
  5  6  2  0
  6  7  1  0
  7  8  1  0
  6  9  1  0
  9 10  2  0
 10  3  1  0
M  END
>  <Title>  (634) 
idAAYJgen7

$$$$

     RDKit          2D

 22 22  0  0  0  0  0  0  0  0999 V2000
    8.3444   -2.5981    0.0000 C   0  0  0  0  0  0  0  0  0  0  0  0
    7.5944   -1.2990    0.0000 C   0  0  0  0  0  0  0  0  0  0  0  0
    8.3444    0.0000    0.0000 O   0  0  0  0  0  0  0  0  0  0  0  0
    6.0944   -1.2990    0.0000 O   0  0  0  0  0  0  0  0  0  0  0  0
    5.3444    0.0000    0.0000 C   0  0  0  0  0  0  0  0  0  0  0  0
    6.0944    1.2990    0.0000 O   0  0  0  0  0  0  0  0  0  0  0  0
    3.8444    0.0000    0.0000 C   0  0  0  0  0  0  0  0  0  0  0  0
    3.5517   -1.4712    0.0000 C   0  0  0  0  0  0  0  0  0  0  0  0
    2.7184   -2.7184    0.0000 C   0  0  0  0  0  0  0  0  0  0  0  0
    1.4712   -3.5517    0.0000 C   0  0  0  0  0  0  0  0  0  0  0  0
   -0.0000   -3.8444    0.0000 C   0  0  0  0  0  0  0  0  0  0  0  0
   -1.4712   -3.5517    0.0000 C   0  0  0  0  0  0  0  0  0  0  0  0
   -2.7184   -2.7184    0.0000 C   0  0  0  0  0  0  0  0  0  0  0  0
   -3.5517   -1.4712    0.0000 C   0  0  0  0  0  0  0  0  0  0  0  0
   -3.8444    0.0000    0.0000 C   0  0  0  0  0  0  0  0  0  0  0  0
   -3.5517    1.4712    0.0000 C   0  0  0  0  0  0  0  0  0  0  0  0
   -2.7184    2.7184    0.0000 C   0  0  0  0  0  0  0  0  0  0  0  0
   -1.4712    3.5517    0.0000 C   0  0  0  0  0  0  0  0  0  0  0  0
    0.0000    3.8444    0.0000 C   0  0  0  0  0  0  0  0  0  0  0  0
    1.4712    3.5517    0.0000 C   0  0  0  0  0  0  0  0  0  0  0  0
    2.7184    2.7184    0.0000 C   0  0  0  0  0  0  0  0  0  0  0  0
    3.5517    1.4712    0.0000 C   0  0  0  0  0  0  0  0  0  0  0  0
  1  2  1  0
  2  3  2  0
  2  4  1  0
  4  5  1  0
  5  6  2  0
  5  7  1  0
  7  8  1  0
  8  9  2  0
  9 10  1  0
 10 11  2  0
 11 12  1  0
 12 13  2  0
 13 14  1  0
 14 15  2  0
 15 16  1  0
 16 17  2  0
 17 18  1  0
 18 19  2  0
 19 20  1  0
 20 21  2  0
 21 22  1  0
 22  7  1  0
M  END
>  <Title>  (635) 
idAAYKgen7

$$$$

     RDKit          2D

 24 26  0  0  0  0  0  0  0  0999 V2000
    3.0000    0.0000    0.0000 C   0  0  0  0  0  0  0  0  0  0  0  0
    1.5000    0.0000    0.0000 C   0  0  0  0  0  0  0  0  0  0  0  0
    0.7500    1.2990    0.0000 C   0  0  0  0  0  0  0  0  0  0  0  0
   -0.7500    1.2990    0.0000 C   0  0  0  0  0  0  0  0  0  0  0  0
   -1.5000    0.0000    0.0000 C   0  0  0  0  0  0  0  0  0  0  0  0
   -3.0000    0.0000    0.0000 C   0  0  0  0  0  0  0  0  0  0  0  0
   -3.8817   -1.2135    0.0000 N   0  0  0  0  0  0  0  0  0  0  0  0
   -5.3083   -0.7500    0.0000 N   0  0  0  0  0  0  0  0  0  0  0  0
   -5.3083    0.7500    0.0000 N   0  0  0  0  0  0  0  0  0  0  0  0
   -3.8817    1.2135    0.0000 N   0  0  0  0  0  0  0  0  0  0  0  0
   -3.4182    2.6401    0.0000 C   0  0  0  0  0  0  0  0  0  0  0  0
   -1.9509    2.9520    0.0000 C   0  0  0  0  0  0  0  0  0  0  0  0
   -1.4874    4.3786    0.0000 C   0  0  0  0  0  0  0  0  0  0  0  0
   -2.4911    5.4933    0.0000 C   0  0  0  0  0  0  0  0  0  0  0  0
   -2.0276    6.9199    0.0000 C   0  0  0  0  0  0  0  0  0  0  0  0
   -0.5604    7.2317    0.0000 C   0  0  0  0  0  0  0  0  0  0  0  0
    0.4433    6.1170    0.0000 O   0  0  0  0  0  0  0  0  0  0  0  0
   -0.0968    8.6583    0.0000 N   0  0  0  0  0  0  0  0  0  0  0  0
    1.3704    8.9702    0.0000 O   0  0  0  0  0  0  0  0  0  0  0  0
   -3.9583    5.1814    0.0000 C   0  0  0  0  0  0  0  0  0  0  0  0
   -4.4218    3.7548    0.0000 C   0  0  0  0  0  0  0  0  0  0  0  0
   -0.7500   -1.2990    0.0000 C   0  0  0  0  0  0  0  0  0  0  0  0
   -1.5000   -2.5981    0.0000 O   0  0  0  0  0  0  0  0  0  0  0  0
    0.7500   -1.2990    0.0000 N   0  0  0  0  0  0  0  0  0  0  0  0
  1  2  1  0
  2  3  2  0
  3  4  1  0
  4  5  2  0
  5  6  1  0
  6  7  2  0
  7  8  1  0
  8  9  2  0
  9 10  1  0
 10 11  1  0
 11 12  2  0
 12 13  1  0
 13 14  2  0
 14 15  1  0
 15 16  1  0
 16 17  2  0
 16 18  1  0
 18 19  1  0
 14 20  1  0
 20 21  1  0
  5 22  1  0
 22 23  2  0
 22 24  1  0
 24  2  1  0
 10  6  1  0
 21 11  1  0
M  END
>  <Title>  (636) 
idAAYLgen7

$$$$

     RDKit          2D

 27 30  0  0  0  0  0  0  0  0999 V2000
    3.0000    0.0000    0.0000 C   0  0  0  0  0  0  0  0  0  0  0  0
    1.5000    0.0000    0.0000 C   0  0  0  0  0  0  0  0  0  0  0  0
    0.7500   -1.2990    0.0000 C   0  0  0  0  0  0  0  0  0  0  0  0
   -0.7500   -1.2990    0.0000 C   0  0  0  0  0  0  0  0  0  0  0  0
   -1.5000    0.0000    0.0000 C   0  0  0  0  0  0  0  0  0  0  0  0
   -3.0000    0.0000    0.0000 C   0  0  0  0  0  0  0  0  0  0  0  0
   -3.7500   -1.2990    0.0000 O   0  0  0  0  0  0  0  0  0  0  0  0
   -3.7500    1.2990    0.0000 N   0  0  0  0  0  0  0  0  0  0  0  0
   -5.2500    1.2990    0.0000 C   0  0  0  0  0  0  0  0  0  0  0  0
   -6.1317    0.0855    0.0000 N   0  0  0  0  0  0  0  0  0  0  0  0
   -7.5583    0.5490    0.0000 N   0  0  0  0  0  0  0  0  0  0  0  0
   -7.5583    2.0490    0.0000 N   0  0  0  0  0  0  0  0  0  0  0  0
   -6.1317    2.5126    0.0000 N   0  0  0  0  0  0  0  0  0  0  0  0
   -5.6682    3.9391    0.0000 C   0  0  0  0  0  0  0  0  0  0  0  0
   -4.2009    4.2510    0.0000 C   0  0  0  0  0  0  0  0  0  0  0  0
   -3.7374    5.6776    0.0000 C   0  0  0  0  0  0  0  0  0  0  0  0
   -4.7411    6.7923    0.0000 C   0  0  0  0  0  0  0  0  0  0  0  0
   -4.2776    8.2189    0.0000 C   0  0  0  0  0  0  0  0  0  0  0  0
   -2.8104    8.5308    0.0000 C   0  0  0  0  0  0  0  0  0  0  0  0
   -2.3468    9.9574    0.0000 C   0  0  0  0  0  0  0  0  0  0  0  0
   -3.3505   11.0721    0.0000 C   0  0  0  0  0  0  0  0  0  0  0  0
   -4.8177   10.7602    0.0000 C   0  0  0  0  0  0  0  0  0  0  0  0
   -5.2813    9.3336    0.0000 C   0  0  0  0  0  0  0  0  0  0  0  0
   -6.2083    6.4805    0.0000 C   0  0  0  0  0  0  0  0  0  0  0  0
   -6.6718    5.0539    0.0000 C   0  0  0  0  0  0  0  0  0  0  0  0
   -0.7500    1.2990    0.0000 C   0  0  0  0  0  0  0  0  0  0  0  0
    0.7500    1.2990    0.0000 C   0  0  0  0  0  0  0  0  0  0  0  0
  1  2  1  0
  2  3  2  0
  3  4  1  0
  4  5  2  0
  5  6  1  0
  6  7  2  0
  6  8  1  0
  8  9  1  0
  9 10  2  0
 10 11  1  0
 11 12  2  0
 12 13  1  0
 13 14  1  0
 14 15  2  0
 15 16  1  0
 16 17  2  0
 17 18  1  0
 18 19  2  0
 19 20  1  0
 20 21  2  0
 21 22  1  0
 22 23  2  0
 17 24  1  0
 24 25  2  0
  5 26  1  0
 26 27  1  0
 27  2  1  0
 13  9  1  0
 25 14  1  0
 23 18  1  0
M  END
>  <Title>  (637) 
idAAYMgen7

$$$$

     RDKit          2D

 24 26  0  0  0  0  0  0  0  0999 V2000
    3.0000    0.0000    0.0000 C   0  0  0  0  0  0  0  0  0  0  0  0
    1.5000    0.0000    0.0000 C   0  0  0  0  0  0  0  0  0  0  0  0
    0.7500   -1.2990    0.0000 C   0  0  0  0  0  0  0  0  0  0  0  0
   -0.7500   -1.2990    0.0000 C   0  0  0  0  0  0  0  0  0  0  0  0
   -1.5000    0.0000    0.0000 C   0  0  0  0  0  0  0  0  0  0  0  0
   -3.0000    0.0000    0.0000 C   0  0  0  0  0  0  0  0  0  0  0  0
   -3.7500   -1.2990    0.0000 O   0  0  0  0  0  0  0  0  0  0  0  0
   -3.7500    1.2990    0.0000 N   0  0  0  0  0  0  0  0  0  0  0  0
   -5.2500    1.2990    0.0000 C   0  0  0  0  0  0  0  0  0  0  0  0
   -6.1317    0.0855    0.0000 N   0  0  0  0  0  0  0  0  0  0  0  0
   -7.5583    0.5490    0.0000 N   0  0  0  0  0  0  0  0  0  0  0  0
   -7.5583    2.0490    0.0000 N   0  0  0  0  0  0  0  0  0  0  0  0
   -6.1317    2.5126    0.0000 N   0  0  0  0  0  0  0  0  0  0  0  0
   -5.6682    3.9391    0.0000 C   0  0  0  0  0  0  0  0  0  0  0  0
   -4.2009    4.2510    0.0000 C   0  0  0  0  0  0  0  0  0  0  0  0
   -3.7374    5.6776    0.0000 C   0  0  0  0  0  0  0  0  0  0  0  0
   -4.7411    6.7923    0.0000 C   0  0  0  0  0  0  0  0  0  0  0  0
   -4.2776    8.2189    0.0000 O   0  0  0  0  0  0  0  0  0  0  0  0
   -6.2083    6.4805    0.0000 C   0  0  0  0  0  0  0  0  0  0  0  0
   -7.2120    7.5952    0.0000 O   0  0  0  0  0  0  0  0  0  0  0  0
   -6.6718    5.0539    0.0000 N   0  0  0  0  0  0  0  0  0  0  0  0
   -0.7500    1.2990    0.0000 C   0  0  0  0  0  0  0  0  0  0  0  0
   -1.5000    2.5981    0.0000 O   0  0  0  0  0  0  0  0  0  0  0  0
    0.7500    1.2990    0.0000 N   0  0  0  0  0  0  0  0  0  0  0  0
  1  2  1  0
  2  3  2  0
  3  4  1  0
  4  5  2  0
  5  6  1  0
  6  7  2  0
  6  8  1  0
  8  9  1  0
  9 10  2  0
 10 11  1  0
 11 12  2  0
 12 13  1  0
 13 14  1  0
 14 15  2  0
 15 16  1  0
 16 17  2  0
 17 18  1  0
 17 19  1  0
 19 20  2  0
 19 21  1  0
  5 22  1  0
 22 23  2  0
 22 24  1  0
 24  2  1  0
 13  9  1  0
 21 14  1  0
M  END
>  <Title>  (638) 
idAAYNgen7

$$$$

     RDKit          2D

 49 56  0  0  0  0  0  0  0  0999 V2000
    3.0000    0.0000    0.0000 C   0  0  0  0  0  0  0  0  0  0  0  0
    1.5000    0.0000    0.0000 C   0  0  0  0  0  0  0  0  0  0  0  0
    0.7500   -1.2990    0.0000 C   0  0  0  0  0  0  0  0  0  0  0  0
   -0.7500   -1.2990    0.0000 C   0  0  0  0  0  0  0  0  0  0  0  0
   -1.5000    0.0000    0.0000 C   0  0  0  0  0  0  0  0  0  0  0  0
   -3.0000    0.0000    0.0000 C   0  0  0  0  0  0  0  0  0  0  0  0
   -3.7500   -1.2990    0.0000 O   0  0  0  0  0  0  0  0  0  0  0  0
   -3.7500    1.2990    0.0000 N   0  0  0  0  0  0  0  0  0  0  0  0
   -5.2500    1.2990    0.0000 C   0  0  0  0  0  0  0  0  0  0  0  0
   -6.1317    0.0855    0.0000 N   0  0  0  0  0  0  0  0  0  0  0  0
   -7.5583    0.5490    0.0000 N   0  0  0  0  0  0  0  0  0  0  0  0
   -7.5583    2.0490    0.0000 N   0  0  0  0  0  0  0  0  0  0  0  0
   -6.1317    2.5126    0.0000 N   0  0  0  0  0  0  0  0  0  0  0  0
   -5.6682    3.9391    0.0000 C   0  0  0  0  0  0  0  0  0  0  0  0
   -4.2009    4.2510    0.0000 C   0  0  0  0  0  0  0  0  0  0  0  0
   -3.7374    5.6776    0.0000 C   0  0  0  0  0  0  0  0  0  0  0  0
   -4.7411    6.7923    0.0000 C   0  0  0  0  0  0  0  0  0  0  0  0
   -4.2776    8.2189    0.0000 C   0  0  0  0  0  0  0  0  0  0  0  0
   -5.1593    9.4324    0.0000 N   0  0  0  0  0  0  0  0  0  0  0  0
   -4.2776   10.6460    0.0000 N   0  0  0  0  0  0  0  0  0  0  0  0
   -2.8510   10.1824    0.0000 N   0  0  0  0  0  0  0  0  0  0  0  0
   -2.8510    8.6824    0.0000 N   0  0  0  0  0  0  0  0  0  0  0  0
   -1.6375    7.8008    0.0000 C   0  0  0  0  0  0  0  0  0  0  0  0
   -1.6375    6.3008    0.0000 N   0  0  0  0  0  0  0  0  0  0  0  0
   -0.2109    5.8372    0.0000 N   0  0  0  0  0  0  0  0  0  0  0  0
    0.6708    7.0508    0.0000 N   0  0  0  0  0  0  0  0  0  0  0  0
   -0.2109    8.2643    0.0000 N   0  0  0  0  0  0  0  0  0  0  0  0
    0.2526    9.6909    0.0000 C   0  0  0  0  0  0  0  0  0  0  0  0
   -0.7511   10.8056    0.0000 C   0  0  0  0  0  0  0  0  0  0  0  0
   -0.2875   12.2322    0.0000 C   0  0  0  0  0  0  0  0  0  0  0  0
    1.1797   12.5440    0.0000 C   0  0  0  0  0  0  0  0  0  0  0  0
    1.6432   13.9706    0.0000 C   0  0  0  0  0  0  0  0  0  0  0  0
    0.6395   15.0853    0.0000 C   0  0  0  0  0  0  0  0  0  0  0  0
    1.1031   16.5119    0.0000 C   0  0  0  0  0  0  0  0  0  0  0  0
    2.5703   16.8238    0.0000 C   0  0  0  0  0  0  0  0  0  0  0  0
    3.5740   15.7091    0.0000 C   0  0  0  0  0  0  0  0  0  0  0  0
    3.1104   14.2825    0.0000 C   0  0  0  0  0  0  0  0  0  0  0  0
    2.1834   11.4293    0.0000 C   0  0  0  0  0  0  0  0  0  0  0  0
    1.7199   10.0027    0.0000 C   0  0  0  0  0  0  0  0  0  0  0  0
    2.7236    8.8880    0.0000 C   0  0  0  0  0  0  0  0  0  0  0  0
    4.1908    9.1999    0.0000 C   0  0  0  0  0  0  0  0  0  0  0  0
    5.1945    8.0852    0.0000 C   0  0  0  0  0  0  0  0  0  0  0  0
    4.7310    6.6586    0.0000 C   0  0  0  0  0  0  0  0  0  0  0  0
    3.2637    6.3467    0.0000 C   0  0  0  0  0  0  0  0  0  0  0  0
    2.2600    7.4614    0.0000 C   0  0  0  0  0  0  0  0  0  0  0  0
   -6.2083    6.4805    0.0000 C   0  0  0  0  0  0  0  0  0  0  0  0
   -6.6718    5.0539    0.0000 C   0  0  0  0  0  0  0  0  0  0  0  0
   -0.7500    1.2990    0.0000 C   0  0  0  0  0  0  0  0  0  0  0  0
    0.7500    1.2990    0.0000 C   0  0  0  0  0  0  0  0  0  0  0  0
  1  2  1  0
  2  3  2  0
  3  4  1  0
  4  5  2  0
  5  6  1  0
  6  7  2  0
  6  8  1  0
  8  9  1  0
  9 10  2  0
 10 11  1  0
 11 12  2  0
 12 13  1  0
 13 14  1  0
 14 15  2  0
 15 16  1  0
 16 17  2  0
 17 18  1  0
 18 19  2  0
 19 20  1  0
 20 21  2  0
 21 22  1  0
 22 23  1  0
 23 24  2  0
 24 25  1  0
 25 26  2  0
 26 27  1  0
 27 28  1  0
 28 29  2  0
 29 30  1  0
 30 31  2  0
 31 32  1  0
 32 33  2  0
 33 34  1  0
 34 35  2  0
 35 36  1  0
 36 37  2  0
 31 38  1  0
 38 39  2  0
 39 40  1  0
 40 41  2  0
 41 42  1  0
 42 43  2  0
 43 44  1  0
 44 45  2  0
 17 46  1  0
 46 47  2  0
  5 48  1  0
 48 49  2  0
 49  2  1  0
 13  9  1  0
 47 14  1  0
 22 18  1  0
 27 23  1  0
 39 28  1  0
 45 40  1  0
 37 32  1  0
M  END
>  <Title>  (639) 
idAAYOgen7

$$$$

     RDKit          2D

 13 13  0  0  0  0  0  0  0  0999 V2000
    6.0000   -2.5981    0.0000 C   0  0  0  0  0  0  0  0  0  0  0  0
    5.2500   -1.2990    0.0000 C   0  0  0  0  0  0  0  0  0  0  0  0
    6.0000    0.0000    0.0000 O   0  0  0  0  0  0  0  0  0  0  0  0
    3.7500   -1.2990    0.0000 N   0  0  0  0  0  0  0  0  0  0  0  0
    3.0000    0.0000    0.0000 C   0  0  0  0  0  0  0  0  0  0  0  0
    3.7500    1.2990    0.0000 O   0  0  0  0  0  0  0  0  0  0  0  0
    1.5000    0.0000    0.0000 C   0  0  0  0  0  0  0  0  0  0  0  0
    0.7500   -1.2990    0.0000 C   0  0  0  0  0  0  0  0  0  0  0  0
   -0.7500   -1.2990    0.0000 C   0  0  0  0  0  0  0  0  0  0  0  0
   -1.5000    0.0000    0.0000 C   0  0  0  0  0  0  0  0  0  0  0  0
   -0.7500    1.2990    0.0000 C   0  0  0  0  0  0  0  0  0  0  0  0
    0.7500    1.2990    0.0000 C   0  0  0  0  0  0  0  0  0  0  0  0
    1.5000    2.5981    0.0000 N   0  0  0  0  0  0  0  0  0  0  0  0
  1  2  1  0
  2  3  2  0
  2  4  1  0
  4  5  1  0
  5  6  2  0
  5  7  1  0
  7  8  1  0
  8  9  1  0
  9 10  2  0
 10 11  1  0
 11 12  2  0
 12 13  1  0
 12  7  1  0
M  END
>  <Title>  (640) 
idAAYPgen7

$$$$

     RDKit          2D

 33 37  0  0  0  0  0  0  0  0999 V2000
    3.0000    0.0000    0.0000 C   0  0  0  0  0  0  0  0  0  0  0  0
    1.5000    0.0000    0.0000 C   0  0  0  0  0  0  0  0  0  0  0  0
    0.7500   -1.2990    0.0000 C   0  0  0  0  0  0  0  0  0  0  0  0
   -0.7500   -1.2990    0.0000 C   0  0  0  0  0  0  0  0  0  0  0  0
   -1.5000    0.0000    0.0000 C   0  0  0  0  0  0  0  0  0  0  0  0
   -3.0000    0.0000    0.0000 C   0  0  0  0  0  0  0  0  0  0  0  0
   -3.7500   -1.2990    0.0000 O   0  0  0  0  0  0  0  0  0  0  0  0
   -3.7500    1.2990    0.0000 N   0  0  0  0  0  0  0  0  0  0  0  0
   -5.2500    1.2990    0.0000 C   0  0  0  0  0  0  0  0  0  0  0  0
   -6.1317    0.0855    0.0000 N   0  0  0  0  0  0  0  0  0  0  0  0
   -7.5583    0.5490    0.0000 C   0  0  0  0  0  0  0  0  0  0  0  0
   -7.5583    2.0490    0.0000 N   0  0  0  0  0  0  0  0  0  0  0  0
   -6.1317    2.5126    0.0000 N   0  0  0  0  0  0  0  0  0  0  0  0
   -5.6682    3.9391    0.0000 C   0  0  0  0  0  0  0  0  0  0  0  0
   -4.2009    4.2510    0.0000 C   0  0  0  0  0  0  0  0  0  0  0  0
   -3.7374    5.6776    0.0000 C   0  0  0  0  0  0  0  0  0  0  0  0
   -4.7411    6.7923    0.0000 C   0  0  0  0  0  0  0  0  0  0  0  0
   -4.2776    8.2189    0.0000 C   0  0  0  0  0  0  0  0  0  0  0  0
   -2.8104    8.5308    0.0000 C   0  0  0  0  0  0  0  0  0  0  0  0
   -2.3468    9.9574    0.0000 C   0  0  0  0  0  0  0  0  0  0  0  0
   -3.3505   11.0721    0.0000 C   0  0  0  0  0  0  0  0  0  0  0  0
   -2.8870   12.4987    0.0000 C   0  0  0  0  0  0  0  0  0  0  0  0
   -1.4198   12.8105    0.0000 C   0  0  0  0  0  0  0  0  0  0  0  0
   -0.9563   14.2371    0.0000 C   0  0  0  0  0  0  0  0  0  0  0  0
   -1.9599   15.3518    0.0000 C   0  0  0  0  0  0  0  0  0  0  0  0
   -3.4272   15.0400    0.0000 C   0  0  0  0  0  0  0  0  0  0  0  0
   -3.8907   13.6134    0.0000 C   0  0  0  0  0  0  0  0  0  0  0  0
   -4.8177   10.7602    0.0000 C   0  0  0  0  0  0  0  0  0  0  0  0
   -5.2813    9.3336    0.0000 C   0  0  0  0  0  0  0  0  0  0  0  0
   -6.2083    6.4805    0.0000 C   0  0  0  0  0  0  0  0  0  0  0  0
   -6.6718    5.0539    0.0000 N   0  0  0  0  0  0  0  0  0  0  0  0
   -0.7500    1.2990    0.0000 N   0  0  0  0  0  0  0  0  0  0  0  0
    0.7500    1.2990    0.0000 C   0  0  0  0  0  0  0  0  0  0  0  0
  1  2  1  0
  2  3  2  0
  3  4  1  0
  4  5  2  0
  5  6  1  0
  6  7  2  0
  6  8  1  0
  8  9  1  0
  9 10  2  0
 10 11  1  0
 11 12  2  0
 12 13  1  0
 13 14  1  0
 14 15  2  0
 15 16  1  0
 16 17  2  0
 17 18  1  0
 18 19  2  0
 19 20  1  0
 20 21  2  0
 21 22  1  0
 22 23  2  0
 23 24  1  0
 24 25  2  0
 25 26  1  0
 26 27  2  0
 21 28  1  0
 28 29  2  0
 17 30  1  0
 30 31  2  0
  5 32  1  0
 32 33  1  0
 33  2  1  0
 13  9  1  0
 31 14  1  0
 29 18  1  0
 27 22  1  0
M  END
>  <Title>  (641) 
idAAYQgen7

$$$$

     RDKit          2D

 16 15  0  0  0  0  0  0  0  0999 V2000
    0.0000    0.0000    0.0000 C   0  0  0  0  0  0  0  0  0  0  0  0
    1.2990    0.7500    0.0000 C   0  0  0  0  0  0  0  0  0  0  0  0
    2.5981   -0.0000    0.0000 C   0  0  0  0  0  0  0  0  0  0  0  0
    3.8971    0.7500    0.0000 C   0  0  0  0  0  0  0  0  0  0  0  0
    5.1962   -0.0000    0.0000 C   0  0  0  0  0  0  0  0  0  0  0  0
    6.4952    0.7500    0.0000 C   0  0  0  0  0  0  0  0  0  0  0  0
    7.7942   -0.0000    0.0000 C   0  0  0  0  0  0  0  0  0  0  0  0
    9.0933    0.7500    0.0000 C   0  0  0  0  0  0  0  0  0  0  0  0
   10.3923   -0.0000    0.0000 C   0  0  0  0  0  0  0  0  0  0  0  0
   11.6913    0.7500    0.0000 C   0  0  0  0  0  0  0  0  0  0  0  0
   12.9904   -0.0000    0.0000 C   0  0  0  0  0  0  0  0  0  0  0  0
   14.2894    0.7500    0.0000 C   0  0  0  0  0  0  0  0  0  0  0  0
   15.5885   -0.0000    0.0000 C   0  0  0  0  0  0  0  0  0  0  0  0
   16.8875    0.7500    0.0000 C   0  0  0  0  0  0  0  0  0  0  0  0
   18.1865   -0.0000    0.0000 C   0  0  0  0  0  0  0  0  0  0  0  0
   19.4856    0.7500    0.0000 C   0  0  0  0  0  0  0  0  0  0  0  0
  1  2  1  0
  2  3  1  0
  3  4  2  3
  4  5  1  0
  5  6  1  0
  6  7  1  0
  7  8  1  0
  8  9  1  0
  9 10  1  0
 10 11  1  0
 11 12  1  0
 12 13  1  0
 13 14  1  0
 14 15  1  0
 15 16  1  0
M  END
>  <Title>  (642) 
idAAYRgen7

$$$$

     RDKit          2D

 16 16  0  0  0  0  0  0  0  0999 V2000
    4.8705    0.0000    0.0000 C   0  0  0  0  0  0  0  0  0  0  0  0
    3.3705    0.0000    0.0000 C   0  0  0  0  0  0  0  0  0  0  0  0
    3.0367   -1.4624    0.0000 C   0  0  0  0  0  0  0  0  0  0  0  0
    2.1015   -2.6351    0.0000 C   0  0  0  0  0  0  0  0  0  0  0  0
    0.7500   -3.2860    0.0000 C   0  0  0  0  0  0  0  0  0  0  0  0
   -0.7500   -3.2860    0.0000 C   0  0  0  0  0  0  0  0  0  0  0  0
   -2.1015   -2.6351    0.0000 C   0  0  0  0  0  0  0  0  0  0  0  0
   -3.0367   -1.4624    0.0000 C   0  0  0  0  0  0  0  0  0  0  0  0
   -3.3705    0.0000    0.0000 C   0  0  0  0  0  0  0  0  0  0  0  0
   -3.0367    1.4624    0.0000 C   0  0  0  0  0  0  0  0  0  0  0  0
   -2.1015    2.6351    0.0000 C   0  0  0  0  0  0  0  0  0  0  0  0
   -3.0367    3.8079    0.0000 C   0  0  0  0  0  0  0  0  0  0  0  0
   -0.7500    3.2860    0.0000 C   0  0  0  0  0  0  0  0  0  0  0  0
    0.7500    3.2860    0.0000 C   0  0  0  0  0  0  0  0  0  0  0  0
    2.1015    2.6351    0.0000 C   0  0  0  0  0  0  0  0  0  0  0  0
    3.0367    1.4624    0.0000 C   0  0  0  0  0  0  0  0  0  0  0  0
  1  2  1  0
  2  3  2  0
  3  4  1  0
  4  5  2  0
  5  6  1  0
  6  7  2  0
  7  8  1  0
  8  9  2  0
  9 10  1  0
 10 11  2  0
 11 12  1  0
 11 13  1  0
 13 14  2  0
 14 15  1  0
 15 16  2  0
 16  2  1  0
M  END
>  <Title>  (643) 
idAAYSgen7

$$$$

     RDKit          2D

 12 12  0  0  0  0  0  0  0  0999 V2000
    6.0000   -2.5981    0.0000 C   0  0  0  0  0  0  0  0  0  0  0  0
    5.2500   -1.2990    0.0000 C   0  0  0  0  0  0  0  0  0  0  0  0
    6.0000    0.0000    0.0000 O   0  0  0  0  0  0  0  0  0  0  0  0
    3.7500   -1.2990    0.0000 N   0  0  0  0  0  0  0  0  0  0  0  0
    3.0000    0.0000    0.0000 C   0  0  0  0  0  0  0  0  0  0  0  0
    3.7500    1.2990    0.0000 O   0  0  0  0  0  0  0  0  0  0  0  0
    1.5000    0.0000    0.0000 C   0  0  0  0  0  0  0  0  0  0  0  0
    0.7500   -1.2990    0.0000 C   0  0  0  0  0  0  0  0  0  0  0  0
   -0.7500   -1.2990    0.0000 C   0  0  0  0  0  0  0  0  0  0  0  0
   -1.5000    0.0000    0.0000 C   0  0  0  0  0  0  0  0  0  0  0  0
   -0.7500    1.2990    0.0000 C   0  0  0  0  0  0  0  0  0  0  0  0
    0.7500    1.2990    0.0000 C   0  0  0  0  0  0  0  0  0  0  0  0
  1  2  1  0
  2  3  2  0
  2  4  1  0
  4  5  1  0
  5  6  2  0
  5  7  1  0
  7  8  1  0
  8  9  2  0
  9 10  1  0
 10 11  2  0
 11 12  1  0
 12  7  1  0
M  END
>  <Title>  (644) 
idAAYTgen7

$$$$

     RDKit          2D

 23 24  0  0  0  0  0  0  0  0999 V2000
   -4.9714    4.2346    0.0000 C   0  0  0  0  0  0  0  0  0  0  0  0
   -3.8074    3.2884    0.0000 O   0  0  0  0  0  0  0  0  0  0  0  0
   -2.4060    3.8233    0.0000 C   0  0  0  0  0  0  0  0  0  0  0  0
   -2.6573    5.3021    0.0000 C   0  0  0  0  0  0  0  0  0  0  0  0
   -2.3235    6.7645    0.0000 C   0  0  0  0  0  0  0  0  0  0  0  0
   -1.4555    7.9879    0.0000 C   0  0  0  0  0  0  0  0  0  0  0  0
   -0.1854    8.7859    0.0000 C   0  0  0  0  0  0  0  0  0  0  0  0
    1.2934    9.0372    0.0000 C   0  0  0  0  0  0  0  0  0  0  0  0
    2.7558    8.7034    0.0000 C   0  0  0  0  0  0  0  0  0  0  0  0
    3.9791    7.8354    0.0000 C   0  0  0  0  0  0  0  0  0  0  0  0
    4.7772    6.5653    0.0000 C   0  0  0  0  0  0  0  0  0  0  0  0
    5.0284    5.0865    0.0000 C   0  0  0  0  0  0  0  0  0  0  0  0
    4.6946    3.6241    0.0000 C   0  0  0  0  0  0  0  0  0  0  0  0
    3.8266    2.4008    0.0000 C   0  0  0  0  0  0  0  0  0  0  0  0
    2.5566    1.6027    0.0000 C   0  0  0  0  0  0  0  0  0  0  0  0
    1.0777    1.3515    0.0000 C   0  0  0  0  0  0  0  0  0  0  0  0
    1.7286    0.0000    0.0000 C   0  0  0  0  0  0  0  0  0  0  0  0
    1.0777   -1.3515    0.0000 C   0  0  0  0  0  0  0  0  0  0  0  0
   -0.3846   -1.6852    0.0000 C   0  0  0  0  0  0  0  0  0  0  0  0
   -1.5574   -0.7500    0.0000 C   0  0  0  0  0  0  0  0  0  0  0  0
   -1.5574    0.7500    0.0000 C   0  0  0  0  0  0  0  0  0  0  0  0
   -0.3846    1.6852    0.0000 C   0  0  0  0  0  0  0  0  0  0  0  0
   -1.6080    2.5532    0.0000 C   0  0  0  0  0  0  0  0  0  0  0  0
  1  2  1  0
  2  3  1  0
  3  4  2  0
  4  5  1  0
  5  6  2  0
  6  7  1  0
  7  8  2  0
  8  9  1  0
  9 10  2  0
 10 11  1  0
 11 12  2  0
 12 13  1  0
 13 14  2  0
 14 15  1  0
 15 16  2  0
 16 17  1  0
 17 18  2  0
 18 19  1  0
 19 20  2  0
 20 21  1  0
 21 22  2  0
 22 23  1  0
 23  3  1  0
 22 16  1  0
M  END
>  <Title>  (645) 
idAAYUgen7

$$$$

     RDKit          2D

 12 12  0  0  0  0  0  0  0  0999 V2000
    4.1621    0.0000    0.0000 C   0  0  0  0  0  0  0  0  0  0  0  0
    2.6621    0.0000    0.0000 C   0  0  0  0  0  0  0  0  0  0  0  0
    2.2395    1.4392    0.0000 C   0  0  0  0  0  0  0  0  0  0  0  0
    1.1059    2.4215    0.0000 C   0  0  0  0  0  0  0  0  0  0  0  0
   -0.3789    2.6350    0.0000 C   0  0  0  0  0  0  0  0  0  0  0  0
   -1.7433    2.0119    0.0000 C   0  0  0  0  0  0  0  0  0  0  0  0
   -2.5543    0.7500    0.0000 C   0  0  0  0  0  0  0  0  0  0  0  0
   -2.5543   -0.7500    0.0000 C   0  0  0  0  0  0  0  0  0  0  0  0
   -1.7433   -2.0119    0.0000 C   0  0  0  0  0  0  0  0  0  0  0  0
   -0.3789   -2.6350    0.0000 C   0  0  0  0  0  0  0  0  0  0  0  0
    1.1059   -2.4215    0.0000 C   0  0  0  0  0  0  0  0  0  0  0  0
    2.2395   -1.4392    0.0000 C   0  0  0  0  0  0  0  0  0  0  0  0
  1  2  2  0
  2  3  1  0
  3  4  1  0
  4  5  1  0
  5  6  1  0
  6  7  1  0
  7  8  1  0
  8  9  1  0
  9 10  1  0
 10 11  1  0
 11 12  1  0
 12  2  1  0
M  END
>  <Title>  (646) 
idAAYVgen7

$$$$

     RDKit          2D

 37 41  0  0  0  0  0  0  0  0999 V2000
    3.0000    0.0000    0.0000 C   0  0  0  0  0  0  0  0  0  0  0  0
    1.5000    0.0000    0.0000 C   0  0  0  0  0  0  0  0  0  0  0  0
    0.7500   -1.2990    0.0000 C   0  0  0  0  0  0  0  0  0  0  0  0
   -0.7500   -1.2990    0.0000 C   0  0  0  0  0  0  0  0  0  0  0  0
   -1.5000    0.0000    0.0000 C   0  0  0  0  0  0  0  0  0  0  0  0
   -3.0000    0.0000    0.0000 C   0  0  0  0  0  0  0  0  0  0  0  0
   -3.7500   -1.2990    0.0000 O   0  0  0  0  0  0  0  0  0  0  0  0
   -3.7500    1.2990    0.0000 N   0  0  0  0  0  0  0  0  0  0  0  0
   -5.2500    1.2990    0.0000 C   0  0  0  0  0  0  0  0  0  0  0  0
   -6.1317    0.0855    0.0000 N   0  0  0  0  0  0  0  0  0  0  0  0
   -7.5583    0.5490    0.0000 N   0  0  0  0  0  0  0  0  0  0  0  0
   -7.5583    2.0490    0.0000 N   0  0  0  0  0  0  0  0  0  0  0  0
   -6.1317    2.5126    0.0000 N   0  0  0  0  0  0  0  0  0  0  0  0
   -5.6682    3.9391    0.0000 C   0  0  0  0  0  0  0  0  0  0  0  0
   -4.2009    4.2510    0.0000 C   0  0  0  0  0  0  0  0  0  0  0  0
   -3.7374    5.6776    0.0000 C   0  0  0  0  0  0  0  0  0  0  0  0
   -4.7411    6.7923    0.0000 C   0  0  0  0  0  0  0  0  0  0  0  0
   -4.2776    8.2189    0.0000 C   0  0  0  0  0  0  0  0  0  0  0  0
   -2.8104    8.5308    0.0000 C   0  0  0  0  0  0  0  0  0  0  0  0
   -2.3468    9.9574    0.0000 C   0  0  0  0  0  0  0  0  0  0  0  0
   -3.3505   11.0721    0.0000 C   0  0  0  0  0  0  0  0  0  0  0  0
   -4.8177   10.7602    0.0000 C   0  0  0  0  0  0  0  0  0  0  0  0
   -5.2813    9.3336    0.0000 C   0  0  0  0  0  0  0  0  0  0  0  0
   -6.2083    6.4805    0.0000 C   0  0  0  0  0  0  0  0  0  0  0  0
   -6.6718    5.0539    0.0000 C   0  0  0  0  0  0  0  0  0  0  0  0
   -8.1391    4.7420    0.0000 C   0  0  0  0  0  0  0  0  0  0  0  0
   -9.1428    5.8567    0.0000 C   0  0  0  0  0  0  0  0  0  0  0  0
  -10.6100    5.5448    0.0000 C   0  0  0  0  0  0  0  0  0  0  0  0
  -11.0735    4.1183    0.0000 C   0  0  0  0  0  0  0  0  0  0  0  0
  -12.5407    3.8064    0.0000 C   0  0  0  0  0  0  0  0  0  0  0  0
  -13.0043    2.3798    0.0000 O   0  0  0  0  0  0  0  0  0  0  0  0
  -13.5444    4.9211    0.0000 N   0  0  0  0  0  0  0  0  0  0  0  0
  -15.0117    4.6092    0.0000 O   0  0  0  0  0  0  0  0  0  0  0  0
  -10.0698    3.0035    0.0000 C   0  0  0  0  0  0  0  0  0  0  0  0
   -8.6026    3.3154    0.0000 C   0  0  0  0  0  0  0  0  0  0  0  0
   -0.7500    1.2990    0.0000 C   0  0  0  0  0  0  0  0  0  0  0  0
    0.7500    1.2990    0.0000 C   0  0  0  0  0  0  0  0  0  0  0  0
  1  2  1  0
  2  3  2  0
  3  4  1  0
  4  5  2  0
  5  6  1  0
  6  7  2  0
  6  8  1  0
  8  9  1  0
  9 10  2  0
 10 11  1  0
 11 12  2  0
 12 13  1  0
 13 14  1  0
 14 15  2  0
 15 16  1  0
 16 17  2  0
 17 18  1  0
 18 19  2  0
 19 20  1  0
 20 21  2  0
 21 22  1  0
 22 23  2  0
 17 24  1  0
 24 25  2  0
 25 26  1  0
 26 27  2  0
 27 28  1  0
 28 29  2  0
 29 30  1  0
 30 31  2  0
 30 32  1  0
 32 33  1  0
 29 34  1  0
 34 35  1  0
  5 36  1  0
 36 37  2  0
 37  2  1  0
 13  9  1  0
 25 14  1  0
 35 26  1  0
 23 18  1  0
M  END
>  <Title>  (647) 
idAAYWgen7

$$$$

     RDKit          2D

 34 38  0  0  0  0  0  0  0  0999 V2000
    3.0000    0.0000    0.0000 C   0  0  0  0  0  0  0  0  0  0  0  0
    1.5000    0.0000    0.0000 C   0  0  0  0  0  0  0  0  0  0  0  0
    0.7500   -1.2990    0.0000 C   0  0  0  0  0  0  0  0  0  0  0  0
   -0.7500   -1.2990    0.0000 C   0  0  0  0  0  0  0  0  0  0  0  0
   -1.5000    0.0000    0.0000 C   0  0  0  0  0  0  0  0  0  0  0  0
   -3.0000    0.0000    0.0000 C   0  0  0  0  0  0  0  0  0  0  0  0
   -3.7500   -1.2990    0.0000 O   0  0  0  0  0  0  0  0  0  0  0  0
   -3.7500    1.2990    0.0000 N   0  0  0  0  0  0  0  0  0  0  0  0
   -5.2500    1.2990    0.0000 C   0  0  0  0  0  0  0  0  0  0  0  0
   -6.1317    0.0855    0.0000 N   0  0  0  0  0  0  0  0  0  0  0  0
   -7.5583    0.5490    0.0000 N   0  0  0  0  0  0  0  0  0  0  0  0
   -7.5583    2.0490    0.0000 N   0  0  0  0  0  0  0  0  0  0  0  0
   -6.1317    2.5126    0.0000 N   0  0  0  0  0  0  0  0  0  0  0  0
   -5.6682    3.9391    0.0000 C   0  0  0  0  0  0  0  0  0  0  0  0
   -6.5498    5.1527    0.0000 C   0  0  0  0  0  0  0  0  0  0  0  0
   -5.6682    6.3662    0.0000 C   0  0  0  0  0  0  0  0  0  0  0  0
   -4.2416    5.9027    0.0000 C   0  0  0  0  0  0  0  0  0  0  0  0
   -3.0280    6.7844    0.0000 C   0  0  0  0  0  0  0  0  0  0  0  0
   -1.6015    6.3208    0.0000 N   0  0  0  0  0  0  0  0  0  0  0  0
   -0.7198    7.5344    0.0000 N   0  0  0  0  0  0  0  0  0  0  0  0
   -1.6015    8.7479    0.0000 N   0  0  0  0  0  0  0  0  0  0  0  0
   -3.0280    8.2844    0.0000 N   0  0  0  0  0  0  0  0  0  0  0  0
   -4.2416    9.1660    0.0000 C   0  0  0  0  0  0  0  0  0  0  0  0
   -4.2416   10.6660    0.0000 C   0  0  0  0  0  0  0  0  0  0  0  0
   -5.6682   11.1296    0.0000 C   0  0  0  0  0  0  0  0  0  0  0  0
   -6.5498    9.9160    0.0000 C   0  0  0  0  0  0  0  0  0  0  0  0
   -8.0498    9.9160    0.0000 C   0  0  0  0  0  0  0  0  0  0  0  0
   -5.6682    8.7025    0.0000 C   0  0  0  0  0  0  0  0  0  0  0  0
   -6.1317    7.2759    0.0000 O   0  0  0  0  0  0  0  0  0  0  0  0
   -4.2416    4.4027    0.0000 C   0  0  0  0  0  0  0  0  0  0  0  0
   -3.0280    3.5210    0.0000 O   0  0  0  0  0  0  0  0  0  0  0  0
   -0.7500    1.2990    0.0000 N   0  0  0  0  0  0  0  0  0  0  0  0
    0.7500    1.2990    0.0000 C   0  0  0  0  0  0  0  0  0  0  0  0
    1.5000    2.5981    0.0000 O   0  0  0  0  0  0  0  0  0  0  0  0
  1  2  1  0
  2  3  2  0
  3  4  1  0
  4  5  2  0
  5  6  1  0
  6  7  2  0
  6  8  1  0
  8  9  1  0
  9 10  2  0
 10 11  1  0
 11 12  2  0
 12 13  1  0
 13 14  1  0
 14 15  2  0
 15 16  1  0
 16 17  2  0
 17 18  1  0
 18 19  2  0
 19 20  1  0
 20 21  2  0
 21 22  1  0
 22 23  1  0
 23 24  2  0
 24 25  1  0
 25 26  2  0
 26 27  1  0
 26 28  1  0
 28 29  2  0
 17 30  1  0
 30 31  2  0
  5 32  1  0
 32 33  1  0
 33 34  2  0
 33  2  1  0
 13  9  1  0
 30 14  1  0
 22 18  1  0
 28 23  1  0
M  END
>  <Title>  (648) 
idAAYXgen7

$$$$

     RDKit          2D

 28 31  0  0  0  0  0  0  0  0999 V2000
    3.0000    0.0000    0.0000 C   0  0  0  0  0  0  0  0  0  0  0  0
    1.5000    0.0000    0.0000 C   0  0  0  0  0  0  0  0  0  0  0  0
    0.7500   -1.2990    0.0000 C   0  0  0  0  0  0  0  0  0  0  0  0
   -0.7500   -1.2990    0.0000 C   0  0  0  0  0  0  0  0  0  0  0  0
   -1.5000    0.0000    0.0000 C   0  0  0  0  0  0  0  0  0  0  0  0
   -3.0000    0.0000    0.0000 C   0  0  0  0  0  0  0  0  0  0  0  0
   -3.7500   -1.2990    0.0000 O   0  0  0  0  0  0  0  0  0  0  0  0
   -3.7500    1.2990    0.0000 N   0  0  0  0  0  0  0  0  0  0  0  0
   -5.2500    1.2990    0.0000 C   0  0  0  0  0  0  0  0  0  0  0  0
   -6.1317    0.0855    0.0000 N   0  0  0  0  0  0  0  0  0  0  0  0
   -7.5583    0.5490    0.0000 N   0  0  0  0  0  0  0  0  0  0  0  0
   -7.5583    2.0490    0.0000 N   0  0  0  0  0  0  0  0  0  0  0  0
   -6.1317    2.5126    0.0000 N   0  0  0  0  0  0  0  0  0  0  0  0
   -5.6682    3.9391    0.0000 C   0  0  0  0  0  0  0  0  0  0  0  0
   -4.2009    4.2510    0.0000 C   0  0  0  0  0  0  0  0  0  0  0  0
   -3.7374    5.6776    0.0000 C   0  0  0  0  0  0  0  0  0  0  0  0
   -4.7411    6.7923    0.0000 C   0  0  0  0  0  0  0  0  0  0  0  0
   -4.2776    8.2189    0.0000 N   0  0  0  0  0  0  0  0  0  0  0  0
   -2.8104    8.5308    0.0000 C   0  0  0  0  0  0  0  0  0  0  0  0
   -1.8067    7.4161    0.0000 C   0  0  0  0  0  0  0  0  0  0  0  0
   -0.3394    7.7279    0.0000 C   0  0  0  0  0  0  0  0  0  0  0  0
    0.1241    9.1545    0.0000 C   0  0  0  0  0  0  0  0  0  0  0  0
   -0.8796   10.2692    0.0000 C   0  0  0  0  0  0  0  0  0  0  0  0
   -2.3468    9.9574    0.0000 C   0  0  0  0  0  0  0  0  0  0  0  0
   -6.2083    6.4805    0.0000 C   0  0  0  0  0  0  0  0  0  0  0  0
   -6.6718    5.0539    0.0000 C   0  0  0  0  0  0  0  0  0  0  0  0
   -0.7500    1.2990    0.0000 C   0  0  0  0  0  0  0  0  0  0  0  0
    0.7500    1.2990    0.0000 C   0  0  0  0  0  0  0  0  0  0  0  0
  1  2  1  0
  2  3  2  0
  3  4  1  0
  4  5  2  0
  5  6  1  0
  6  7  2  0
  6  8  1  0
  8  9  1  0
  9 10  2  0
 10 11  1  0
 11 12  2  0
 12 13  1  0
 13 14  1  0
 14 15  2  0
 15 16  1  0
 16 17  2  0
 17 18  1  0
 18 19  1  0
 19 20  2  0
 20 21  1  0
 21 22  2  0
 22 23  1  0
 23 24  2  0
 17 25  1  0
 25 26  2  0
  5 27  1  0
 27 28  2  0
 28  2  1  0
 13  9  1  0
 26 14  1  0
 24 19  1  0
M  END
>  <Title>  (649) 
idAAYYgen7

$$$$

     RDKit          2D

 10 11  0  0  0  0  0  0  0  0999 V2000
   -2.9499    4.2246    0.0000 O   0  0  0  0  0  0  0  0  0  0  0  0
   -1.8351    3.2209    0.0000 C   0  0  0  0  0  0  0  0  0  0  0  0
   -0.4086    3.6844    0.0000 C   0  0  0  0  0  0  0  0  0  0  0  0
    0.7062    2.6807    0.0000 C   0  0  0  0  0  0  0  0  0  0  0  0
    0.3943    1.2135    0.0000 C   0  0  0  0  0  0  0  0  0  0  0  0
    1.2760    0.0000    0.0000 N   0  0  0  0  0  0  0  0  0  0  0  0
    0.3943   -1.2135    0.0000 C   0  0  0  0  0  0  0  0  0  0  0  0
   -1.0323   -0.7500    0.0000 N   0  0  0  0  0  0  0  0  0  0  0  0
   -1.0323    0.7500    0.0000 C   0  0  0  0  0  0  0  0  0  0  0  0
   -2.1470    1.7537    0.0000 N   0  0  0  0  0  0  0  0  0  0  0  0
  1  2  1  0
  2  3  2  0
  3  4  1  0
  4  5  2  0
  5  6  1  0
  6  7  2  0
  7  8  2  0
  8  9  1  0
  9 10  2  0
 10  2  1  0
  9  5  1  0
M  END
>  <Title>  (650) 
idAAYZgen7

$$$$

     RDKit          2D

 13 13  0  0  0  0  0  0  0  0999 V2000
    4.9121   -1.2990    0.0000 C   0  0  0  0  0  0  0  0  0  0  0  0
    4.1621    0.0000    0.0000 C   0  0  0  0  0  0  0  0  0  0  0  0
    2.6621    0.0000    0.0000 C   0  0  0  0  0  0  0  0  0  0  0  0
    2.2395    1.4392    0.0000 C   0  0  0  0  0  0  0  0  0  0  0  0
    1.1059    2.4215    0.0000 C   0  0  0  0  0  0  0  0  0  0  0  0
   -0.3789    2.6350    0.0000 C   0  0  0  0  0  0  0  0  0  0  0  0
   -1.7433    2.0119    0.0000 C   0  0  0  0  0  0  0  0  0  0  0  0
   -2.5543    0.7500    0.0000 C   0  0  0  0  0  0  0  0  0  0  0  0
   -2.5543   -0.7500    0.0000 C   0  0  0  0  0  0  0  0  0  0  0  0
   -1.7433   -2.0119    0.0000 C   0  0  0  0  0  0  0  0  0  0  0  0
   -0.3789   -2.6350    0.0000 C   0  0  0  0  0  0  0  0  0  0  0  0
    1.1059   -2.4215    0.0000 C   0  0  0  0  0  0  0  0  0  0  0  0
    2.2395   -1.4392    0.0000 C   0  0  0  0  0  0  0  0  0  0  0  0
  1  2  1  0
  2  3  1  0
  3  4  1  0
  4  5  1  0
  5  6  1  0
  6  7  1  0
  7  8  1  0
  8  9  1  0
  9 10  1  0
 10 11  1  0
 11 12  1  0
 12 13  1  0
 13  3  1  0
M  END
>  <Title>  (651) 
idAAZAgen7

$$$$

     RDKit          2D

 16 16  0  0  0  0  0  0  0  0999 V2000
    3.6929   -5.1962    0.0000 C   0  0  0  0  0  0  0  0  0  0  0  0
    4.4429   -3.8971    0.0000 C   0  0  0  0  0  0  0  0  0  0  0  0
    5.9429   -3.8971    0.0000 C   0  0  0  0  0  0  0  0  0  0  0  0
    3.6929   -2.5981    0.0000 C   0  0  0  0  0  0  0  0  0  0  0  0
    4.4429   -1.2990    0.0000 C   0  0  0  0  0  0  0  0  0  0  0  0
    5.9429   -1.2990    0.0000 C   0  0  0  0  0  0  0  0  0  0  0  0
    3.6929    0.0000    0.0000 C   0  0  0  0  0  0  0  0  0  0  0  0
    2.1929    0.0000    0.0000 C   0  0  0  0  0  0  0  0  0  0  0  0
    1.6798    1.4095    0.0000 C   0  0  0  0  0  0  0  0  0  0  0  0
    0.3808    2.1595    0.0000 C   0  0  0  0  0  0  0  0  0  0  0  0
   -1.0964    1.8991    0.0000 C   0  0  0  0  0  0  0  0  0  0  0  0
   -2.0606    0.7500    0.0000 C   0  0  0  0  0  0  0  0  0  0  0  0
   -2.0606   -0.7500    0.0000 C   0  0  0  0  0  0  0  0  0  0  0  0
   -1.0964   -1.8991    0.0000 C   0  0  0  0  0  0  0  0  0  0  0  0
    0.3808   -2.1595    0.0000 C   0  0  0  0  0  0  0  0  0  0  0  0
    1.6798   -1.4095    0.0000 C   0  0  0  0  0  0  0  0  0  0  0  0
  1  2  1  0
  2  3  1  0
  2  4  1  0
  4  5  1  0
  5  6  1  0
  5  7  1  0
  7  8  1  0
  8  9  1  0
  9 10  1  0
 10 11  1  0
 11 12  1  0
 12 13  1  0
 13 14  1  0
 14 15  1  0
 15 16  1  0
 16  8  1  0
M  END
>  <Title>  (652) 
idAAZBgen7

$$$$

     RDKit          2D

 28 31  0  0  0  0  0  0  0  0999 V2000
    3.0000    0.0000    0.0000 C   0  0  0  0  0  0  0  0  0  0  0  0
    1.5000    0.0000    0.0000 C   0  0  0  0  0  0  0  0  0  0  0  0
    0.7500    1.2990    0.0000 C   0  0  0  0  0  0  0  0  0  0  0  0
   -0.7500    1.2990    0.0000 C   0  0  0  0  0  0  0  0  0  0  0  0
   -1.5000    0.0000    0.0000 C   0  0  0  0  0  0  0  0  0  0  0  0
   -3.0000    0.0000    0.0000 C   0  0  0  0  0  0  0  0  0  0  0  0
   -3.8817   -1.2135    0.0000 N   0  0  0  0  0  0  0  0  0  0  0  0
   -5.3083   -0.7500    0.0000 N   0  0  0  0  0  0  0  0  0  0  0  0
   -5.3083    0.7500    0.0000 N   0  0  0  0  0  0  0  0  0  0  0  0
   -3.8817    1.2135    0.0000 N   0  0  0  0  0  0  0  0  0  0  0  0
   -3.4182    2.6401    0.0000 C   0  0  0  0  0  0  0  0  0  0  0  0
   -1.9509    2.9520    0.0000 C   0  0  0  0  0  0  0  0  0  0  0  0
   -1.4874    4.3786    0.0000 C   0  0  0  0  0  0  0  0  0  0  0  0
   -2.4911    5.4933    0.0000 C   0  0  0  0  0  0  0  0  0  0  0  0
   -2.0276    6.9199    0.0000 C   0  0  0  0  0  0  0  0  0  0  0  0
   -3.0313    8.0346    0.0000 O   0  0  0  0  0  0  0  0  0  0  0  0
   -0.5604    7.2317    0.0000 N   0  0  0  0  0  0  0  0  0  0  0  0
   -0.0968    8.6583    0.0000 C   0  0  0  0  0  0  0  0  0  0  0  0
    1.3704    8.9702    0.0000 C   0  0  0  0  0  0  0  0  0  0  0  0
    1.8339   10.3968    0.0000 C   0  0  0  0  0  0  0  0  0  0  0  0
    0.8302   11.5115    0.0000 C   0  0  0  0  0  0  0  0  0  0  0  0
   -0.6370   11.1996    0.0000 C   0  0  0  0  0  0  0  0  0  0  0  0
   -1.1005    9.7730    0.0000 C   0  0  0  0  0  0  0  0  0  0  0  0
   -3.9583    5.1814    0.0000 C   0  0  0  0  0  0  0  0  0  0  0  0
   -4.4218    3.7548    0.0000 C   0  0  0  0  0  0  0  0  0  0  0  0
   -0.7500   -1.2990    0.0000 C   0  0  0  0  0  0  0  0  0  0  0  0
   -1.5000   -2.5981    0.0000 O   0  0  0  0  0  0  0  0  0  0  0  0
    0.7500   -1.2990    0.0000 N   0  0  0  0  0  0  0  0  0  0  0  0
  1  2  1  0
  2  3  2  0
  3  4  1  0
  4  5  2  0
  5  6  1  0
  6  7  2  0
  7  8  1  0
  8  9  2  0
  9 10  1  0
 10 11  1  0
 11 12  2  0
 12 13  1  0
 13 14  2  0
 14 15  1  0
 15 16  2  0
 15 17  1  0
 17 18  1  0
 18 19  2  0
 19 20  1  0
 20 21  2  0
 21 22  1  0
 22 23  2  0
 14 24  1  0
 24 25  2  0
  5 26  1  0
 26 27  2  0
 26 28  1  0
 28  2  1  0
 10  6  1  0
 25 11  1  0
 23 18  1  0
M  END
>  <Title>  (653) 
idAAZCgen7

$$$$

     RDKit          2D

 20 22  0  0  0  0  0  0  0  0999 V2000
    3.0000    0.0000    0.0000 C   0  0  0  0  0  0  0  0  0  0  0  0
    1.5000    0.0000    0.0000 C   0  0  0  0  0  0  0  0  0  0  0  0
    0.7500   -1.2990    0.0000 C   0  0  0  0  0  0  0  0  0  0  0  0
   -0.7500   -1.2990    0.0000 C   0  0  0  0  0  0  0  0  0  0  0  0
   -1.5000    0.0000    0.0000 C   0  0  0  0  0  0  0  0  0  0  0  0
   -3.0000    0.0000    0.0000 C   0  0  0  0  0  0  0  0  0  0  0  0
   -3.8817   -1.2135    0.0000 N   0  0  0  0  0  0  0  0  0  0  0  0
   -5.3083   -0.7500    0.0000 N   0  0  0  0  0  0  0  0  0  0  0  0
   -5.3083    0.7500    0.0000 N   0  0  0  0  0  0  0  0  0  0  0  0
   -3.8817    1.2135    0.0000 N   0  0  0  0  0  0  0  0  0  0  0  0
   -3.4182    2.6401    0.0000 C   0  0  0  0  0  0  0  0  0  0  0  0
   -1.9509    2.9520    0.0000 C   0  0  0  0  0  0  0  0  0  0  0  0
   -1.4874    4.3786    0.0000 C   0  0  0  0  0  0  0  0  0  0  0  0
   -2.4911    5.4933    0.0000 C   0  0  0  0  0  0  0  0  0  0  0  0
   -2.0276    6.9199    0.0000 C   0  0  0  0  0  0  0  0  0  0  0  0
   -3.9583    5.1814    0.0000 C   0  0  0  0  0  0  0  0  0  0  0  0
   -4.9620    6.2961    0.0000 O   0  0  0  0  0  0  0  0  0  0  0  0
   -4.4218    3.7548    0.0000 N   0  0  0  0  0  0  0  0  0  0  0  0
   -0.7500    1.2990    0.0000 C   0  0  0  0  0  0  0  0  0  0  0  0
    0.7500    1.2990    0.0000 C   0  0  0  0  0  0  0  0  0  0  0  0
  1  2  1  0
  2  3  2  0
  3  4  1  0
  4  5  2  0
  5  6  1  0
  6  7  2  0
  7  8  1  0
  8  9  2  0
  9 10  1  0
 10 11  1  0
 11 12  2  0
 12 13  1  0
 13 14  2  0
 14 15  1  0
 14 16  1  0
 16 17  2  0
 16 18  1  0
  5 19  1  0
 19 20  1  0
 20  2  1  0
 10  6  1  0
 18 11  1  0
M  END
>  <Title>  (654) 
idAAZDgen7

$$$$

     RDKit          2D

 10 10  0  0  0  0  0  0  0  0999 V2000
    3.4598   -0.0000    0.0000 C   0  0  0  0  0  0  0  0  0  0  0  0
    1.9598    0.0000    0.0000 C   0  0  0  0  0  0  0  0  0  0  0  0
    1.3858   -1.3858    0.0000 C   0  0  0  0  0  0  0  0  0  0  0  0
   -0.0000   -1.9598    0.0000 C   0  0  0  0  0  0  0  0  0  0  0  0
   -1.3858   -1.3858    0.0000 C   0  0  0  0  0  0  0  0  0  0  0  0
   -1.9598    0.0000    0.0000 C   0  0  0  0  0  0  0  0  0  0  0  0
   -1.3858    1.3858    0.0000 C   0  0  0  0  0  0  0  0  0  0  0  0
   -2.4465    2.4465    0.0000 C   0  0  0  0  0  0  0  0  0  0  0  0
    0.0000    1.9598    0.0000 C   0  0  0  0  0  0  0  0  0  0  0  0
    1.3858    1.3858    0.0000 C   0  0  0  0  0  0  0  0  0  0  0  0
  1  2  1  0
  2  3  2  0
  3  4  1  0
  4  5  2  0
  5  6  1  0
  6  7  2  0
  7  8  1  0
  7  9  1  0
  9 10  1  0
 10  2  1  0
M  END
>  <Title>  (655) 
idAAZEgen7

$$$$

     RDKit          2D

 32 36  0  0  0  0  0  0  0  0999 V2000
   10.0355    0.6881    0.0000 C   0  0  0  0  0  0  0  0  0  0  0  0
    8.5683    0.3762    0.0000 C   0  0  0  0  0  0  0  0  0  0  0  0
    7.4536    1.3799    0.0000 C   0  0  0  0  0  0  0  0  0  0  0  0
    6.1545    0.6299    0.0000 C   0  0  0  0  0  0  0  0  0  0  0  0
    6.4664   -0.8373    0.0000 C   0  0  0  0  0  0  0  0  0  0  0  0
    5.4627   -1.9520    0.0000 C   0  0  0  0  0  0  0  0  0  0  0  0
    5.9262   -3.3786    0.0000 O   0  0  0  0  0  0  0  0  0  0  0  0
    3.9955   -1.6402    0.0000 N   0  0  0  0  0  0  0  0  0  0  0  0
    2.9918   -2.7549    0.0000 C   0  0  0  0  0  0  0  0  0  0  0  0
    3.3037   -4.2221    0.0000 N   0  0  0  0  0  0  0  0  0  0  0  0
    2.0046   -4.9721    0.0000 N   0  0  0  0  0  0  0  0  0  0  0  0
    0.8899   -3.9684    0.0000 N   0  0  0  0  0  0  0  0  0  0  0  0
    1.5000   -2.5981    0.0000 N   0  0  0  0  0  0  0  0  0  0  0  0
    0.7500   -1.2990    0.0000 C   0  0  0  0  0  0  0  0  0  0  0  0
    1.5000    0.0000    0.0000 C   0  0  0  0  0  0  0  0  0  0  0  0
    0.7500    1.2990    0.0000 C   0  0  0  0  0  0  0  0  0  0  0  0
   -0.7500    1.2990    0.0000 C   0  0  0  0  0  0  0  0  0  0  0  0
   -1.5000    2.5981    0.0000 C   0  0  0  0  0  0  0  0  0  0  0  0
   -2.9918    2.7549    0.0000 N   0  0  0  0  0  0  0  0  0  0  0  0
   -3.3037    4.2221    0.0000 N   0  0  0  0  0  0  0  0  0  0  0  0
   -2.0046    4.9721    0.0000 N   0  0  0  0  0  0  0  0  0  0  0  0
   -0.8899    3.9684    0.0000 N   0  0  0  0  0  0  0  0  0  0  0  0
    0.5773    4.2803    0.0000 C   0  0  0  0  0  0  0  0  0  0  0  0
    1.5810    3.1655    0.0000 C   0  0  0  0  0  0  0  0  0  0  0  0
    3.0482    3.4774    0.0000 C   0  0  0  0  0  0  0  0  0  0  0  0
    3.5118    4.9040    0.0000 C   0  0  0  0  0  0  0  0  0  0  0  0
    2.5081    6.0187    0.0000 C   0  0  0  0  0  0  0  0  0  0  0  0
    1.0409    5.7068    0.0000 C   0  0  0  0  0  0  0  0  0  0  0  0
   -1.5000    0.0000    0.0000 C   0  0  0  0  0  0  0  0  0  0  0  0
   -0.7500   -1.2990    0.0000 C   0  0  0  0  0  0  0  0  0  0  0  0
    7.9582   -0.9941    0.0000 C   0  0  0  0  0  0  0  0  0  0  0  0
    8.7082   -2.2931    0.0000 O   0  0  0  0  0  0  0  0  0  0  0  0
  1  2  1  0
  2  3  2  0
  3  4  1  0
  4  5  2  0
  5  6  1  0
  6  7  2  0
  6  8  1  0
  8  9  1  0
  9 10  2  0
 10 11  1  0
 11 12  2  0
 12 13  1  0
 13 14  1  0
 14 15  2  0
 15 16  1  0
 16 17  2  0
 17 18  1  0
 18 19  2  0
 19 20  1  0
 20 21  2  0
 21 22  1  0
 22 23  1  0
 23 24  2  0
 24 25  1  0
 25 26  2  0
 26 27  1  0
 27 28  2  0
 17 29  1  0
 29 30  2  0
  5 31  1  0
 31 32  2  0
 31  2  1  0
 13  9  1  0
 30 14  1  0
 22 18  1  0
 28 23  1  0
M  END
>  <Title>  (656) 
idAAZFgen7

$$$$

     RDKit          2D

 27 29  0  0  0  0  0  0  0  0999 V2000
    3.0000    0.0000    0.0000 C   0  0  0  0  0  0  0  0  0  0  0  0
    1.5000    0.0000    0.0000 C   0  0  0  0  0  0  0  0  0  0  0  0
    0.7500   -1.2990    0.0000 C   0  0  0  0  0  0  0  0  0  0  0  0
   -0.7500   -1.2990    0.0000 C   0  0  0  0  0  0  0  0  0  0  0  0
   -1.5000    0.0000    0.0000 C   0  0  0  0  0  0  0  0  0  0  0  0
   -3.0000    0.0000    0.0000 C   0  0  0  0  0  0  0  0  0  0  0  0
   -3.7500   -1.2990    0.0000 O   0  0  0  0  0  0  0  0  0  0  0  0
   -3.7500    1.2990    0.0000 N   0  0  0  0  0  0  0  0  0  0  0  0
   -5.2500    1.2990    0.0000 C   0  0  0  0  0  0  0  0  0  0  0  0
   -6.1317    0.0855    0.0000 N   0  0  0  0  0  0  0  0  0  0  0  0
   -7.5583    0.5490    0.0000 N   0  0  0  0  0  0  0  0  0  0  0  0
   -7.5583    2.0490    0.0000 N   0  0  0  0  0  0  0  0  0  0  0  0
   -6.1317    2.5126    0.0000 N   0  0  0  0  0  0  0  0  0  0  0  0
   -5.6682    3.9391    0.0000 C   0  0  0  0  0  0  0  0  0  0  0  0
   -4.2009    4.2510    0.0000 C   0  0  0  0  0  0  0  0  0  0  0  0
   -3.7374    5.6776    0.0000 C   0  0  0  0  0  0  0  0  0  0  0  0
   -4.7411    6.7923    0.0000 C   0  0  0  0  0  0  0  0  0  0  0  0
   -4.2776    8.2189    0.0000 C   0  0  0  0  0  0  0  0  0  0  0  0
   -5.2813    9.3336    0.0000 O   0  0  0  0  0  0  0  0  0  0  0  0
   -2.8104    8.5308    0.0000 N   0  0  0  0  0  0  0  0  0  0  0  0
   -2.3468    9.9574    0.0000 O   0  0  0  0  0  0  0  0  0  0  0  0
   -6.2083    6.4805    0.0000 N   0  0  0  0  0  0  0  0  0  0  0  0
   -6.6718    5.0539    0.0000 C   0  0  0  0  0  0  0  0  0  0  0  0
   -8.1391    4.7420    0.0000 O   0  0  0  0  0  0  0  0  0  0  0  0
   -0.7500    1.2990    0.0000 C   0  0  0  0  0  0  0  0  0  0  0  0
   -1.5000    2.5981    0.0000 O   0  0  0  0  0  0  0  0  0  0  0  0
    0.7500    1.2990    0.0000 N   0  0  0  0  0  0  0  0  0  0  0  0
  1  2  1  0
  2  3  2  0
  3  4  1  0
  4  5  2  0
  5  6  1  0
  6  7  2  0
  6  8  1  0
  8  9  1  0
  9 10  2  0
 10 11  1  0
 11 12  2  0
 12 13  1  0
 13 14  1  0
 14 15  2  0
 15 16  1  0
 16 17  2  0
 17 18  1  0
 18 19  2  0
 18 20  1  0
 20 21  1  0
 17 22  1  0
 22 23  1  0
 23 24  2  0
  5 25  1  0
 25 26  2  0
 25 27  1  0
 27  2  1  0
 13  9  1  0
 23 14  1  0
M  END
>  <Title>  (657) 
idAAZGgen7

$$$$

     RDKit          2D

 25 27  0  0  0  0  0  0  0  0999 V2000
    3.0000    0.0000    0.0000 C   0  0  0  0  0  0  0  0  0  0  0  0
    1.5000    0.0000    0.0000 C   0  0  0  0  0  0  0  0  0  0  0  0
    0.7500   -1.2990    0.0000 C   0  0  0  0  0  0  0  0  0  0  0  0
   -0.7500   -1.2990    0.0000 C   0  0  0  0  0  0  0  0  0  0  0  0
   -1.5000    0.0000    0.0000 C   0  0  0  0  0  0  0  0  0  0  0  0
   -3.0000    0.0000    0.0000 C   0  0  0  0  0  0  0  0  0  0  0  0
   -3.7500   -1.2990    0.0000 O   0  0  0  0  0  0  0  0  0  0  0  0
   -3.7500    1.2990    0.0000 N   0  0  0  0  0  0  0  0  0  0  0  0
   -5.2500    1.2990    0.0000 C   0  0  0  0  0  0  0  0  0  0  0  0
   -6.1317    0.0855    0.0000 N   0  0  0  0  0  0  0  0  0  0  0  0
   -7.5583    0.5490    0.0000 N   0  0  0  0  0  0  0  0  0  0  0  0
   -7.5583    2.0490    0.0000 N   0  0  0  0  0  0  0  0  0  0  0  0
   -6.1317    2.5126    0.0000 N   0  0  0  0  0  0  0  0  0  0  0  0
   -5.6682    3.9391    0.0000 C   0  0  0  0  0  0  0  0  0  0  0  0
   -4.2009    4.2510    0.0000 C   0  0  0  0  0  0  0  0  0  0  0  0
   -3.7374    5.6776    0.0000 C   0  0  0  0  0  0  0  0  0  0  0  0
   -4.7411    6.7923    0.0000 C   0  0  0  0  0  0  0  0  0  0  0  0
   -4.2776    8.2189    0.0000 C   0  0  0  0  0  0  0  0  0  0  0  0
   -5.2813    9.3336    0.0000 O   0  0  0  0  0  0  0  0  0  0  0  0
   -2.8104    8.5308    0.0000 N   0  0  0  0  0  0  0  0  0  0  0  0
   -2.3468    9.9574    0.0000 O   0  0  0  0  0  0  0  0  0  0  0  0
   -6.2083    6.4805    0.0000 C   0  0  0  0  0  0  0  0  0  0  0  0
   -6.6718    5.0539    0.0000 C   0  0  0  0  0  0  0  0  0  0  0  0
   -0.7500    1.2990    0.0000 C   0  0  0  0  0  0  0  0  0  0  0  0
    0.7500    1.2990    0.0000 C   0  0  0  0  0  0  0  0  0  0  0  0
  1  2  1  0
  2  3  2  0
  3  4  1  0
  4  5  2  0
  5  6  1  0
  6  7  2  0
  6  8  1  0
  8  9  1  0
  9 10  2  0
 10 11  1  0
 11 12  2  0
 12 13  1  0
 13 14  1  0
 14 15  2  0
 15 16  1  0
 16 17  2  0
 17 18  1  0
 18 19  2  0
 18 20  1  0
 20 21  1  0
 17 22  1  0
 22 23  1  0
  5 24  1  0
 24 25  2  0
 25  2  1  0
 13  9  1  0
 23 14  1  0
M  END
>  <Title>  (658) 
idAAZHgen7

$$$$

     RDKit          2D

 56 63  0  0  0  0  0  0  0  0999 V2000
    3.0000    0.0000    0.0000 C   0  0  0  0  0  0  0  0  0  0  0  0
    1.5000    0.0000    0.0000 C   0  0  0  0  0  0  0  0  0  0  0  0
    0.7500   -1.2990    0.0000 C   0  0  0  0  0  0  0  0  0  0  0  0
   -0.7500   -1.2990    0.0000 C   0  0  0  0  0  0  0  0  0  0  0  0
   -1.5000    0.0000    0.0000 C   0  0  0  0  0  0  0  0  0  0  0  0
   -3.0000    0.0000    0.0000 C   0  0  0  0  0  0  0  0  0  0  0  0
   -3.8817   -1.2135    0.0000 N   0  0  0  0  0  0  0  0  0  0  0  0
   -5.3083   -0.7500    0.0000 N   0  0  0  0  0  0  0  0  0  0  0  0
   -5.3083    0.7500    0.0000 N   0  0  0  0  0  0  0  0  0  0  0  0
   -3.8817    1.2135    0.0000 N   0  0  0  0  0  0  0  0  0  0  0  0
   -3.4182    2.6401    0.0000 C   0  0  0  0  0  0  0  0  0  0  0  0
   -1.9509    2.9520    0.0000 C   0  0  0  0  0  0  0  0  0  0  0  0
   -1.4874    4.3786    0.0000 C   0  0  0  0  0  0  0  0  0  0  0  0
   -2.4911    5.4933    0.0000 C   0  0  0  0  0  0  0  0  0  0  0  0
   -2.0276    6.9199    0.0000 C   0  0  0  0  0  0  0  0  0  0  0  0
   -3.0313    8.0346    0.0000 O   0  0  0  0  0  0  0  0  0  0  0  0
   -0.5604    7.2317    0.0000 N   0  0  0  0  0  0  0  0  0  0  0  0
   -0.0968    8.6583    0.0000 C   0  0  0  0  0  0  0  0  0  0  0  0
   -1.1005    9.7730    0.0000 O   0  0  0  0  0  0  0  0  0  0  0  0
    1.3704    8.9702    0.0000 N   0  0  0  0  0  0  0  0  0  0  0  0
    1.8339   10.3968    0.0000 C   0  0  0  0  0  0  0  0  0  0  0  0
    0.9522   11.6103    0.0000 N   0  0  0  0  0  0  0  0  0  0  0  0
    1.8339   12.8238    0.0000 N   0  0  0  0  0  0  0  0  0  0  0  0
    3.2605   12.3603    0.0000 N   0  0  0  0  0  0  0  0  0  0  0  0
    3.2605   10.8603    0.0000 N   0  0  0  0  0  0  0  0  0  0  0  0
    4.4740    9.9786    0.0000 C   0  0  0  0  0  0  0  0  0  0  0  0
    5.9006   10.4421    0.0000 N   0  0  0  0  0  0  0  0  0  0  0  0
    6.7823    9.2286    0.0000 N   0  0  0  0  0  0  0  0  0  0  0  0
    5.9006    8.0151    0.0000 N   0  0  0  0  0  0  0  0  0  0  0  0
    4.4740    8.4786    0.0000 N   0  0  0  0  0  0  0  0  0  0  0  0
    3.2605    7.5969    0.0000 C   0  0  0  0  0  0  0  0  0  0  0  0
    1.8902    8.2070    0.0000 C   0  0  0  0  0  0  0  0  0  0  0  0
    0.6767    7.3254    0.0000 C   0  0  0  0  0  0  0  0  0  0  0  0
    0.8335    5.8336    0.0000 C   0  0  0  0  0  0  0  0  0  0  0  0
    2.2038    5.2235    0.0000 C   0  0  0  0  0  0  0  0  0  0  0  0
    3.4173    6.1052    0.0000 C   0  0  0  0  0  0  0  0  0  0  0  0
   -3.9583    5.1814    0.0000 C   0  0  0  0  0  0  0  0  0  0  0  0
   -4.4218    3.7548    0.0000 C   0  0  0  0  0  0  0  0  0  0  0  0
   -5.8891    3.4430    0.0000 C   0  0  0  0  0  0  0  0  0  0  0  0
   -6.4992    2.0726    0.0000 C   0  0  0  0  0  0  0  0  0  0  0  0
   -7.9910    2.2294    0.0000 C   0  0  0  0  0  0  0  0  0  0  0  0
   -8.3028    3.6967    0.0000 C   0  0  0  0  0  0  0  0  0  0  0  0
   -9.6731    4.3068    0.0000 C   0  0  0  0  0  0  0  0  0  0  0  0
  -10.8867    3.4251    0.0000 O   0  0  0  0  0  0  0  0  0  0  0  0
   -9.8299    5.7985    0.0000 N   0  0  0  0  0  0  0  0  0  0  0  0
  -11.2003    6.4086    0.0000 C   0  0  0  0  0  0  0  0  0  0  0  0
  -11.3570    7.9004    0.0000 C   0  0  0  0  0  0  0  0  0  0  0  0
  -12.7274    8.5105    0.0000 C   0  0  0  0  0  0  0  0  0  0  0  0
  -13.9409    7.6289    0.0000 C   0  0  0  0  0  0  0  0  0  0  0  0
  -13.7841    6.1371    0.0000 C   0  0  0  0  0  0  0  0  0  0  0  0
  -12.4138    5.5270    0.0000 C   0  0  0  0  0  0  0  0  0  0  0  0
   -7.0038    4.4467    0.0000 C   0  0  0  0  0  0  0  0  0  0  0  0
   -6.8470    5.9384    0.0000 O   0  0  0  0  0  0  0  0  0  0  0  0
   -0.7500    1.2990    0.0000 N   0  0  0  0  0  0  0  0  0  0  0  0
    0.7500    1.2990    0.0000 C   0  0  0  0  0  0  0  0  0  0  0  0
    1.5000    2.5981    0.0000 O   0  0  0  0  0  0  0  0  0  0  0  0
  1  2  1  0
  2  3  2  0
  3  4  1  0
  4  5  2  0
  5  6  1  0
  6  7  2  0
  7  8  1  0
  8  9  2  0
  9 10  1  0
 10 11  1  0
 11 12  2  0
 12 13  1  0
 13 14  2  0
 14 15  1  0
 15 16  2  0
 15 17  1  0
 17 18  1  0
 18 19  2  0
 18 20  1  0
 20 21  1  0
 21 22  2  0
 22 23  1  0
 23 24  2  0
 24 25  1  0
 25 26  1  0
 26 27  2  0
 27 28  1  0
 28 29  2  0
 29 30  1  0
 30 31  1  0
 31 32  2  0
 32 33  1  0
 33 34  2  0
 34 35  1  0
 35 36  2  0
 14 37  1  0
 37 38  2  0
 38 39  1  0
 39 40  2  0
 40 41  1  0
 41 42  2  0
 42 43  1  0
 43 44  2  0
 43 45  1  0
 45 46  1  0
 46 47  2  0
 47 48  1  0
 48 49  2  0
 49 50  1  0
 50 51  2  0
 42 52  1  0
 52 53  2  0
  5 54  1  0
 54 55  1  0
 55 56  2  0
 55  2  1  0
 10  6  1  0
 38 11  1  0
 52 39  1  0
 25 21  1  0
 30 26  1  0
 36 31  1  0
 51 46  1  0
M  END
>  <Title>  (659) 
idAAZIgen7

$$$$

     RDKit          2D

 51 58  0  0  0  0  0  0  0  0999 V2000
    0.8311   10.2038    0.0000 C   0  0  0  0  0  0  0  0  0  0  0  0
   -0.5392    9.5937    0.0000 C   0  0  0  0  0  0  0  0  0  0  0  0
   -1.7527   10.4753    0.0000 C   0  0  0  0  0  0  0  0  0  0  0  0
   -3.1230    9.8652    0.0000 C   0  0  0  0  0  0  0  0  0  0  0  0
   -3.2798    8.3735    0.0000 C   0  0  0  0  0  0  0  0  0  0  0  0
   -4.6502    7.7634    0.0000 C   0  0  0  0  0  0  0  0  0  0  0  0
   -5.9492    8.5134    0.0000 N   0  0  0  0  0  0  0  0  0  0  0  0
   -7.0639    7.5097    0.0000 N   0  0  0  0  0  0  0  0  0  0  0  0
   -6.4538    6.1393    0.0000 N   0  0  0  0  0  0  0  0  0  0  0  0
   -4.9620    6.2961    0.0000 N   0  0  0  0  0  0  0  0  0  0  0  0
   -3.9583    5.1814    0.0000 C   0  0  0  0  0  0  0  0  0  0  0  0
   -2.4911    5.4933    0.0000 C   0  0  0  0  0  0  0  0  0  0  0  0
   -1.4874    4.3786    0.0000 C   0  0  0  0  0  0  0  0  0  0  0  0
   -1.9509    2.9520    0.0000 C   0  0  0  0  0  0  0  0  0  0  0  0
   -0.9472    1.8373    0.0000 C   0  0  0  0  0  0  0  0  0  0  0  0
    0.5200    2.1491    0.0000 C   0  0  0  0  0  0  0  0  0  0  0  0
    1.5237    1.0344    0.0000 C   0  0  0  0  0  0  0  0  0  0  0  0
    1.0602   -0.3922    0.0000 C   0  0  0  0  0  0  0  0  0  0  0  0
   -0.4071   -0.7040    0.0000 C   0  0  0  0  0  0  0  0  0  0  0  0
   -1.4108    0.4107    0.0000 C   0  0  0  0  0  0  0  0  0  0  0  0
   -3.4182    2.6401    0.0000 C   0  0  0  0  0  0  0  0  0  0  0  0
   -4.4218    3.7548    0.0000 C   0  0  0  0  0  0  0  0  0  0  0  0
   -5.8891    3.4430    0.0000 C   0  0  0  0  0  0  0  0  0  0  0  0
   -6.8928    4.5577    0.0000 C   0  0  0  0  0  0  0  0  0  0  0  0
   -8.3600    4.2458    0.0000 C   0  0  0  0  0  0  0  0  0  0  0  0
   -8.8235    2.8192    0.0000 C   0  0  0  0  0  0  0  0  0  0  0  0
  -10.2907    2.5074    0.0000 C   0  0  0  0  0  0  0  0  0  0  0  0
  -10.7543    1.0808    0.0000 O   0  0  0  0  0  0  0  0  0  0  0  0
  -11.2944    3.6221    0.0000 N   0  0  0  0  0  0  0  0  0  0  0  0
  -12.7617    3.3102    0.0000 C   0  0  0  0  0  0  0  0  0  0  0  0
  -13.7653    4.4249    0.0000 C   0  0  0  0  0  0  0  0  0  0  0  0
  -15.2326    4.1131    0.0000 C   0  0  0  0  0  0  0  0  0  0  0  0
  -15.6961    2.6865    0.0000 C   0  0  0  0  0  0  0  0  0  0  0  0
  -14.6924    1.5718    0.0000 C   0  0  0  0  0  0  0  0  0  0  0  0
  -13.2252    1.8836    0.0000 C   0  0  0  0  0  0  0  0  0  0  0  0
   -7.8198    1.7045    0.0000 C   0  0  0  0  0  0  0  0  0  0  0  0
   -6.3526    2.0164    0.0000 C   0  0  0  0  0  0  0  0  0  0  0  0
   -5.3489    0.9017    0.0000 C   0  0  0  0  0  0  0  0  0  0  0  0
   -5.8124   -0.5249    0.0000 C   0  0  0  0  0  0  0  0  0  0  0  0
   -4.8087   -1.6396    0.0000 C   0  0  0  0  0  0  0  0  0  0  0  0
   -3.3415   -1.3278    0.0000 C   0  0  0  0  0  0  0  0  0  0  0  0
   -2.3378   -2.4425    0.0000 C   0  0  0  0  0  0  0  0  0  0  0  0
   -2.8013   -3.8691    0.0000 C   0  0  0  0  0  0  0  0  0  0  0  0
   -1.7976   -4.9838    0.0000 C   0  0  0  0  0  0  0  0  0  0  0  0
   -0.3304   -4.6719    0.0000 C   0  0  0  0  0  0  0  0  0  0  0  0
    0.1331   -3.2453    0.0000 C   0  0  0  0  0  0  0  0  0  0  0  0
   -0.8706   -2.1306    0.0000 C   0  0  0  0  0  0  0  0  0  0  0  0
   -2.8780    0.0988    0.0000 C   0  0  0  0  0  0  0  0  0  0  0  0
   -3.8817    1.2135    0.0000 C   0  0  0  0  0  0  0  0  0  0  0  0
   -2.0663    7.4918    0.0000 C   0  0  0  0  0  0  0  0  0  0  0  0
   -0.6960    8.1019    0.0000 C   0  0  0  0  0  0  0  0  0  0  0  0
  1  2  1  0
  2  3  2  0
  3  4  1  0
  4  5  2  0
  5  6  1  0
  6  7  2  0
  7  8  1  0
  8  9  2  0
  9 10  1  0
 10 11  1  0
 11 12  2  0
 12 13  1  0
 13 14  2  0
 14 15  1  0
 15 16  2  0
 16 17  1  0
 17 18  2  0
 18 19  1  0
 19 20  2  0
 14 21  1  0
 21 22  2  0
 22 23  1  0
 23 24  2  0
 24 25  1  0
 25 26  2  0
 26 27  1  0
 27 28  2  0
 27 29  1  0
 29 30  1  0
 30 31  2  0
 31 32  1  0
 32 33  2  0
 33 34  1  0
 34 35  2  0
 26 36  1  0
 36 37  2  0
 37 38  1  0
 38 39  2  0
 39 40  1  0
 40 41  2  0
 41 42  1  0
 42 43  2  0
 43 44  1  0
 44 45  2  0
 45 46  1  0
 46 47  2  0
 41 48  1  0
 48 49  2  0
  5 50  1  0
 50 51  2  0
 51  2  1  0
 10  6  1  0
 22 11  1  0
 37 23  1  0
 49 38  1  0
 20 15  1  0
 35 30  1  0
 47 42  1  0
M  END
>  <Title>  (660) 
idAAZJgen7

$$$$

     RDKit          2D

 31 34  0  0  0  0  0  0  0  0999 V2000
    3.7500   -1.2990    0.0000 C   0  0  0  0  0  0  0  0  0  0  0  0
    3.0000    0.0000    0.0000 O   0  0  0  0  0  0  0  0  0  0  0  0
    1.5000    0.0000    0.0000 C   0  0  0  0  0  0  0  0  0  0  0  0
    0.7500   -1.2990    0.0000 C   0  0  0  0  0  0  0  0  0  0  0  0
   -0.7500   -1.2990    0.0000 C   0  0  0  0  0  0  0  0  0  0  0  0
   -1.5000    0.0000    0.0000 C   0  0  0  0  0  0  0  0  0  0  0  0
   -3.0000    0.0000    0.0000 C   0  0  0  0  0  0  0  0  0  0  0  0
   -3.7500   -1.2990    0.0000 O   0  0  0  0  0  0  0  0  0  0  0  0
   -3.7500    1.2990    0.0000 N   0  0  0  0  0  0  0  0  0  0  0  0
   -5.2500    1.2990    0.0000 C   0  0  0  0  0  0  0  0  0  0  0  0
   -6.1317    0.0855    0.0000 N   0  0  0  0  0  0  0  0  0  0  0  0
   -7.5583    0.5490    0.0000 N   0  0  0  0  0  0  0  0  0  0  0  0
   -7.5583    2.0490    0.0000 N   0  0  0  0  0  0  0  0  0  0  0  0
   -6.1317    2.5126    0.0000 N   0  0  0  0  0  0  0  0  0  0  0  0
   -5.6682    3.9391    0.0000 C   0  0  0  0  0  0  0  0  0  0  0  0
   -4.2009    4.2510    0.0000 C   0  0  0  0  0  0  0  0  0  0  0  0
   -3.7374    5.6776    0.0000 C   0  0  0  0  0  0  0  0  0  0  0  0
   -4.7411    6.7923    0.0000 C   0  0  0  0  0  0  0  0  0  0  0  0
   -4.2776    8.2189    0.0000 C   0  0  0  0  0  0  0  0  0  0  0  0
   -5.2813    9.3336    0.0000 O   0  0  0  0  0  0  0  0  0  0  0  0
   -2.8104    8.5308    0.0000 N   0  0  0  0  0  0  0  0  0  0  0  0
   -2.3468    9.9574    0.0000 C   0  0  0  0  0  0  0  0  0  0  0  0
   -0.8796   10.2692    0.0000 C   0  0  0  0  0  0  0  0  0  0  0  0
   -0.4161   11.6958    0.0000 C   0  0  0  0  0  0  0  0  0  0  0  0
   -1.4198   12.8105    0.0000 C   0  0  0  0  0  0  0  0  0  0  0  0
   -2.8870   12.4987    0.0000 C   0  0  0  0  0  0  0  0  0  0  0  0
   -3.3505   11.0721    0.0000 C   0  0  0  0  0  0  0  0  0  0  0  0
   -6.2083    6.4805    0.0000 C   0  0  0  0  0  0  0  0  0  0  0  0
   -6.6718    5.0539    0.0000 C   0  0  0  0  0  0  0  0  0  0  0  0
   -0.7500    1.2990    0.0000 C   0  0  0  0  0  0  0  0  0  0  0  0
    0.7500    1.2990    0.0000 C   0  0  0  0  0  0  0  0  0  0  0  0
  1  2  1  0
  2  3  1  0
  3  4  2  0
  4  5  1  0
  5  6  2  0
  6  7  1  0
  7  8  2  0
  7  9  1  0
  9 10  1  0
 10 11  2  0
 11 12  1  0
 12 13  2  0
 13 14  1  0
 14 15  1  0
 15 16  2  0
 16 17  1  0
 17 18  2  0
 18 19  1  0
 19 20  2  0
 19 21  1  0
 21 22  1  0
 22 23  2  0
 23 24  1  0
 24 25  2  0
 25 26  1  0
 26 27  2  0
 18 28  1  0
 28 29  2  0
  6 30  1  0
 30 31  2  0
 31  3  1  0
 14 10  1  0
 29 15  1  0
 27 22  1  0
M  END
>  <Title>  (661) 
idAAZKgen7

$$$$

     RDKit          2D

 25 28  0  0  0  0  0  0  0  0999 V2000
    3.7500   -1.2990    0.0000 C   0  0  0  0  0  0  0  0  0  0  0  0
    3.0000    0.0000    0.0000 O   0  0  0  0  0  0  0  0  0  0  0  0
    1.5000    0.0000    0.0000 C   0  0  0  0  0  0  0  0  0  0  0  0
    0.7500   -1.2990    0.0000 C   0  0  0  0  0  0  0  0  0  0  0  0
   -0.7500   -1.2990    0.0000 C   0  0  0  0  0  0  0  0  0  0  0  0
   -1.5000    0.0000    0.0000 C   0  0  0  0  0  0  0  0  0  0  0  0
   -3.0000    0.0000    0.0000 C   0  0  0  0  0  0  0  0  0  0  0  0
   -3.8817   -1.2135    0.0000 C   0  0  0  0  0  0  0  0  0  0  0  0
   -5.3083   -0.7500    0.0000 N   0  0  0  0  0  0  0  0  0  0  0  0
   -5.3083    0.7500    0.0000 N   0  0  0  0  0  0  0  0  0  0  0  0
   -3.8817    1.2135    0.0000 N   0  0  0  0  0  0  0  0  0  0  0  0
   -3.4182    2.6401    0.0000 C   0  0  0  0  0  0  0  0  0  0  0  0
   -1.9509    2.9520    0.0000 C   0  0  0  0  0  0  0  0  0  0  0  0
   -1.4874    4.3786    0.0000 C   0  0  0  0  0  0  0  0  0  0  0  0
   -2.4911    5.4933    0.0000 C   0  0  0  0  0  0  0  0  0  0  0  0
   -2.0276    6.9199    0.0000 C   0  0  0  0  0  0  0  0  0  0  0  0
   -0.5604    7.2317    0.0000 C   0  0  0  0  0  0  0  0  0  0  0  0
   -0.0968    8.6583    0.0000 C   0  0  0  0  0  0  0  0  0  0  0  0
   -1.1005    9.7730    0.0000 C   0  0  0  0  0  0  0  0  0  0  0  0
   -2.5677    9.4612    0.0000 C   0  0  0  0  0  0  0  0  0  0  0  0
   -3.0313    8.0346    0.0000 C   0  0  0  0  0  0  0  0  0  0  0  0
   -3.9583    5.1814    0.0000 C   0  0  0  0  0  0  0  0  0  0  0  0
   -4.4218    3.7548    0.0000 C   0  0  0  0  0  0  0  0  0  0  0  0
   -0.7500    1.2990    0.0000 C   0  0  0  0  0  0  0  0  0  0  0  0
    0.7500    1.2990    0.0000 C   0  0  0  0  0  0  0  0  0  0  0  0
  1  2  1  0
  2  3  1  0
  3  4  2  0
  4  5  1  0
  5  6  2  0
  6  7  1  0
  7  8  2  0
  8  9  1  0
  9 10  2  0
 10 11  1  0
 11 12  1  0
 12 13  2  0
 13 14  1  0
 14 15  2  0
 15 16  1  0
 16 17  2  0
 17 18  1  0
 18 19  2  0
 19 20  1  0
 20 21  2  0
 15 22  1  0
 22 23  2  0
  6 24  1  0
 24 25  2  0
 25  3  1  0
 11  7  1  0
 23 12  1  0
 21 16  1  0
M  END
>  <Title>  (662) 
idAAZLgen7

$$$$

     RDKit          2D

 41 46  0  0  0  0  0  0  0  0999 V2000
    3.0000    0.0000    0.0000 C   0  0  0  0  0  0  0  0  0  0  0  0
    1.5000    0.0000    0.0000 C   0  0  0  0  0  0  0  0  0  0  0  0
    0.7500   -1.2990    0.0000 C   0  0  0  0  0  0  0  0  0  0  0  0
   -0.7500   -1.2990    0.0000 C   0  0  0  0  0  0  0  0  0  0  0  0
   -1.5000    0.0000    0.0000 C   0  0  0  0  0  0  0  0  0  0  0  0
   -3.0000    0.0000    0.0000 N   0  0  0  0  0  0  0  0  0  0  0  0
   -3.7500    1.2990    0.0000 N   0  0  0  0  0  0  0  0  0  0  0  0
   -5.2500    1.2990    0.0000 N   0  0  0  0  0  0  0  0  0  0  0  0
   -6.0000    0.0000    0.0000 N   0  0  0  0  0  0  0  0  0  0  0  0
   -5.2500   -1.2990    0.0000 N   0  0  0  0  0  0  0  0  0  0  0  0
   -3.7500   -1.2990    0.0000 N   0  0  0  0  0  0  0  0  0  0  0  0
   -3.0000   -2.5981    0.0000 C   0  0  0  0  0  0  0  0  0  0  0  0
   -3.7500   -3.8971    0.0000 C   0  0  0  0  0  0  0  0  0  0  0  0
   -3.0000   -5.1962    0.0000 C   0  0  0  0  0  0  0  0  0  0  0  0
   -1.5000   -5.1962    0.0000 C   0  0  0  0  0  0  0  0  0  0  0  0
   -0.7500   -6.4952    0.0000 C   0  0  0  0  0  0  0  0  0  0  0  0
    0.7500   -6.4952    0.0000 O   0  0  0  0  0  0  0  0  0  0  0  0
   -1.5000   -7.7942    0.0000 N   0  0  0  0  0  0  0  0  0  0  0  0
   -0.7500   -9.0933    0.0000 C   0  0  0  0  0  0  0  0  0  0  0  0
    0.7500   -9.0933    0.0000 C   0  0  0  0  0  0  0  0  0  0  0  0
    1.5000  -10.3923    0.0000 C   0  0  0  0  0  0  0  0  0  0  0  0
    0.7500  -11.6913    0.0000 C   0  0  0  0  0  0  0  0  0  0  0  0
    1.5000  -12.9904    0.0000 C   0  0  0  0  0  0  0  0  0  0  0  0
    3.0000  -12.9904    0.0000 C   0  0  0  0  0  0  0  0  0  0  0  0
    3.7500  -14.2894    0.0000 C   0  0  0  0  0  0  0  0  0  0  0  0
    3.0000  -15.5885    0.0000 C   0  0  0  0  0  0  0  0  0  0  0  0
    1.5000  -15.5885    0.0000 C   0  0  0  0  0  0  0  0  0  0  0  0
    0.7500  -14.2894    0.0000 C   0  0  0  0  0  0  0  0  0  0  0  0
   -0.7500  -11.6913    0.0000 C   0  0  0  0  0  0  0  0  0  0  0  0
   -1.5000  -10.3923    0.0000 C   0  0  0  0  0  0  0  0  0  0  0  0
   -3.0000  -10.3923    0.0000 C   0  0  0  0  0  0  0  0  0  0  0  0
   -3.7500   -9.0933    0.0000 C   0  0  0  0  0  0  0  0  0  0  0  0
   -5.2500   -9.0933    0.0000 C   0  0  0  0  0  0  0  0  0  0  0  0
   -6.0000  -10.3923    0.0000 C   0  0  0  0  0  0  0  0  0  0  0  0
   -5.2500  -11.6913    0.0000 C   0  0  0  0  0  0  0  0  0  0  0  0
   -3.7500  -11.6913    0.0000 C   0  0  0  0  0  0  0  0  0  0  0  0
   -0.7500   -3.8971    0.0000 C   0  0  0  0  0  0  0  0  0  0  0  0
   -1.5000   -2.5981    0.0000 C   0  0  0  0  0  0  0  0  0  0  0  0
   -0.7500    1.2990    0.0000 C   0  0  0  0  0  0  0  0  0  0  0  0
   -1.5000    2.5981    0.0000 O   0  0  0  0  0  0  0  0  0  0  0  0
    0.7500    1.2990    0.0000 N   0  0  0  0  0  0  0  0  0  0  0  0
  1  2  1  0
  2  3  2  0
  3  4  1  0
  4  5  2  0
  5  6  1  0
  6  7  1  0
  7  8  2  0
  8  9  1  0
  9 10  2  0
 10 11  1  0
 11 12  1  0
 12 13  2  0
 13 14  1  0
 14 15  2  0
 15 16  1  0
 16 17  2  0
 16 18  1  0
 18 19  1  0
 19 20  2  0
 20 21  1  0
 21 22  2  0
 22 23  1  0
 23 24  2  0
 24 25  1  0
 25 26  2  0
 26 27  1  0
 27 28  2  0
 22 29  1  0
 29 30  2  0
 30 31  1  0
 31 32  2  0
 32 33  1  0
 33 34  2  0
 34 35  1  0
 35 36  2  0
 15 37  1  0
 37 38  2  0
  5 39  1  0
 39 40  2  0
 39 41  1  0
 41  2  1  0
 11  6  1  0
 38 12  1  0
 30 19  1  0
 36 31  1  0
 28 23  1  0
M  END
>  <Title>  (663) 
idAAZMgen7

$$$$

     RDKit          2D

 46 52  0  0  0  0  0  0  0  0999 V2000
    3.0000    0.0000    0.0000 C   0  0  0  0  0  0  0  0  0  0  0  0
    1.5000    0.0000    0.0000 C   0  0  0  0  0  0  0  0  0  0  0  0
    0.7500   -1.2990    0.0000 C   0  0  0  0  0  0  0  0  0  0  0  0
   -0.7500   -1.2990    0.0000 C   0  0  0  0  0  0  0  0  0  0  0  0
   -1.5000    0.0000    0.0000 C   0  0  0  0  0  0  0  0  0  0  0  0
   -3.0000    0.0000    0.0000 N   0  0  0  0  0  0  0  0  0  0  0  0
   -3.7500    1.2990    0.0000 N   0  0  0  0  0  0  0  0  0  0  0  0
   -5.2500    1.2990    0.0000 N   0  0  0  0  0  0  0  0  0  0  0  0
   -6.0000    0.0000    0.0000 N   0  0  0  0  0  0  0  0  0  0  0  0
   -5.2500   -1.2990    0.0000 N   0  0  0  0  0  0  0  0  0  0  0  0
   -3.7500   -1.2990    0.0000 N   0  0  0  0  0  0  0  0  0  0  0  0
   -3.0000   -2.5981    0.0000 C   0  0  0  0  0  0  0  0  0  0  0  0
   -1.5082   -2.7549    0.0000 C   0  0  0  0  0  0  0  0  0  0  0  0
   -1.1963   -4.2221    0.0000 C   0  0  0  0  0  0  0  0  0  0  0  0
   -2.4954   -4.9721    0.0000 C   0  0  0  0  0  0  0  0  0  0  0  0
   -2.6522   -6.4639    0.0000 C   0  0  0  0  0  0  0  0  0  0  0  0
   -1.4387   -7.3456    0.0000 O   0  0  0  0  0  0  0  0  0  0  0  0
   -4.0225   -7.0740    0.0000 N   0  0  0  0  0  0  0  0  0  0  0  0
   -4.1793   -8.5658    0.0000 C   0  0  0  0  0  0  0  0  0  0  0  0
   -2.9658   -9.4474    0.0000 C   0  0  0  0  0  0  0  0  0  0  0  0
   -3.1226  -10.9392    0.0000 C   0  0  0  0  0  0  0  0  0  0  0  0
   -4.4929  -11.5493    0.0000 C   0  0  0  0  0  0  0  0  0  0  0  0
   -4.6497  -13.0411    0.0000 C   0  0  0  0  0  0  0  0  0  0  0  0
   -3.4361  -13.9228    0.0000 C   0  0  0  0  0  0  0  0  0  0  0  0
   -3.5929  -15.4146    0.0000 C   0  0  0  0  0  0  0  0  0  0  0  0
   -4.9633  -16.0247    0.0000 C   0  0  0  0  0  0  0  0  0  0  0  0
   -6.1768  -15.1430    0.0000 C   0  0  0  0  0  0  0  0  0  0  0  0
   -6.0200  -13.6512    0.0000 C   0  0  0  0  0  0  0  0  0  0  0  0
   -5.7064  -10.6676    0.0000 C   0  0  0  0  0  0  0  0  0  0  0  0
   -5.5496   -9.1759    0.0000 C   0  0  0  0  0  0  0  0  0  0  0  0
   -6.7631   -8.2942    0.0000 C   0  0  0  0  0  0  0  0  0  0  0  0
   -6.7631   -6.7942    0.0000 N   0  0  0  0  0  0  0  0  0  0  0  0
   -8.1897   -6.3307    0.0000 N   0  0  0  0  0  0  0  0  0  0  0  0
   -9.0714   -7.5442    0.0000 N   0  0  0  0  0  0  0  0  0  0  0  0
   -8.1897   -8.7577    0.0000 N   0  0  0  0  0  0  0  0  0  0  0  0
   -8.6532  -10.1843    0.0000 C   0  0  0  0  0  0  0  0  0  0  0  0
   -7.6495  -11.2990    0.0000 C   0  0  0  0  0  0  0  0  0  0  0  0
   -8.1131  -12.7256    0.0000 C   0  0  0  0  0  0  0  0  0  0  0  0
   -9.5803  -13.0375    0.0000 C   0  0  0  0  0  0  0  0  0  0  0  0
  -10.5840  -11.9228    0.0000 C   0  0  0  0  0  0  0  0  0  0  0  0
  -10.1205  -10.4962    0.0000 C   0  0  0  0  0  0  0  0  0  0  0  0
   -3.6101   -3.9684    0.0000 C   0  0  0  0  0  0  0  0  0  0  0  0
   -5.0773   -4.2803    0.0000 O   0  0  0  0  0  0  0  0  0  0  0  0
   -0.7500    1.2990    0.0000 C   0  0  0  0  0  0  0  0  0  0  0  0
   -1.5000    2.5981    0.0000 O   0  0  0  0  0  0  0  0  0  0  0  0
    0.7500    1.2990    0.0000 N   0  0  0  0  0  0  0  0  0  0  0  0
  1  2  1  0
  2  3  2  0
  3  4  1  0
  4  5  2  0
  5  6  1  0
  6  7  1  0
  7  8  2  0
  8  9  1  0
  9 10  2  0
 10 11  1  0
 11 12  1  0
 12 13  2  0
 13 14  1  0
 14 15  2  0
 15 16  1  0
 16 17  2  0
 16 18  1  0
 18 19  1  0
 19 20  2  0
 20 21  1  0
 21 22  2  0
 22 23  1  0
 23 24  2  0
 24 25  1  0
 25 26  2  0
 26 27  1  0
 27 28  2  0
 22 29  1  0
 29 30  2  0
 30 31  1  0
 31 32  2  0
 32 33  1  0
 33 34  2  0
 34 35  1  0
 35 36  1  0
 36 37  2  0
 37 38  1  0
 38 39  2  0
 39 40  1  0
 40 41  2  0
 15 42  1  0
 42 43  2  0
  5 44  1  0
 44 45  2  0
 44 46  1  0
 46  2  1  0
 11  6  1  0
 42 12  1  0
 30 19  1  0
 35 31  1  0
 41 36  1  0
 28 23  1  0
M  END
>  <Title>  (664) 
idAAZNgen7

$$$$

     RDKit          2D

 30 33  0  0  0  0  0  0  0  0999 V2000
    3.0000    0.0000    0.0000 C   0  0  0  0  0  0  0  0  0  0  0  0
    1.5000    0.0000    0.0000 C   0  0  0  0  0  0  0  0  0  0  0  0
    0.7500   -1.2990    0.0000 C   0  0  0  0  0  0  0  0  0  0  0  0
   -0.7500   -1.2990    0.0000 C   0  0  0  0  0  0  0  0  0  0  0  0
   -1.5000    0.0000    0.0000 C   0  0  0  0  0  0  0  0  0  0  0  0
   -3.0000    0.0000    0.0000 C   0  0  0  0  0  0  0  0  0  0  0  0
   -3.8817   -1.2135    0.0000 N   0  0  0  0  0  0  0  0  0  0  0  0
   -5.3083   -0.7500    0.0000 N   0  0  0  0  0  0  0  0  0  0  0  0
   -5.3083    0.7500    0.0000 N   0  0  0  0  0  0  0  0  0  0  0  0
   -3.8817    1.2135    0.0000 N   0  0  0  0  0  0  0  0  0  0  0  0
   -3.4182    2.6401    0.0000 C   0  0  0  0  0  0  0  0  0  0  0  0
   -1.9509    2.9520    0.0000 C   0  0  0  0  0  0  0  0  0  0  0  0
   -1.4874    4.3786    0.0000 C   0  0  0  0  0  0  0  0  0  0  0  0
   -2.4911    5.4933    0.0000 C   0  0  0  0  0  0  0  0  0  0  0  0
   -2.0276    6.9199    0.0000 C   0  0  0  0  0  0  0  0  0  0  0  0
   -3.0313    8.0346    0.0000 O   0  0  0  0  0  0  0  0  0  0  0  0
   -0.5604    7.2317    0.0000 N   0  0  0  0  0  0  0  0  0  0  0  0
   -0.0968    8.6583    0.0000 C   0  0  0  0  0  0  0  0  0  0  0  0
   -1.1005    9.7730    0.0000 O   0  0  0  0  0  0  0  0  0  0  0  0
    1.3704    8.9702    0.0000 C   0  0  0  0  0  0  0  0  0  0  0  0
    2.3741    7.8555    0.0000 C   0  0  0  0  0  0  0  0  0  0  0  0
    3.8413    8.1673    0.0000 C   0  0  0  0  0  0  0  0  0  0  0  0
    4.3048    9.5939    0.0000 C   0  0  0  0  0  0  0  0  0  0  0  0
    3.3011   10.7086    0.0000 C   0  0  0  0  0  0  0  0  0  0  0  0
    1.8339   10.3968    0.0000 C   0  0  0  0  0  0  0  0  0  0  0  0
   -3.9583    5.1814    0.0000 C   0  0  0  0  0  0  0  0  0  0  0  0
   -4.9620    6.2961    0.0000 O   0  0  0  0  0  0  0  0  0  0  0  0
   -4.4218    3.7548    0.0000 N   0  0  0  0  0  0  0  0  0  0  0  0
   -0.7500    1.2990    0.0000 N   0  0  0  0  0  0  0  0  0  0  0  0
    0.7500    1.2990    0.0000 C   0  0  0  0  0  0  0  0  0  0  0  0
  1  2  1  0
  2  3  2  0
  3  4  1  0
  4  5  2  0
  5  6  1  0
  6  7  2  0
  7  8  1  0
  8  9  2  0
  9 10  1  0
 10 11  1  0
 11 12  2  0
 12 13  1  0
 13 14  2  0
 14 15  1  0
 15 16  2  0
 15 17  1  0
 17 18  1  0
 18 19  2  0
 18 20  1  0
 20 21  1  0
 21 22  1  0
 22 23  1  0
 23 24  1  0
 24 25  1  0
 14 26  1  0
 26 27  2  0
 26 28  1  0
  5 29  1  0
 29 30  1  0
 30  2  1  0
 10  6  1  0
 28 11  1  0
 25 20  1  0
M  END
>  <Title>  (665) 
idAAZOgen7

$$$$

     RDKit          2D

 13 14  0  0  0  0  0  0  0  0999 V2000
    3.5701   -4.6993    0.0000 O   0  0  0  0  0  0  0  0  0  0  0  0
    2.3801   -3.7861    0.0000 C   0  0  0  0  0  0  0  0  0  0  0  0
    0.9942   -4.3602    0.0000 C   0  0  0  0  0  0  0  0  0  0  0  0
   -0.1958   -3.4470    0.0000 C   0  0  0  0  0  0  0  0  0  0  0  0
   -0.0000   -1.9598    0.0000 C   0  0  0  0  0  0  0  0  0  0  0  0
    1.3858   -1.3858    0.0000 C   0  0  0  0  0  0  0  0  0  0  0  0
    2.5758   -2.2990    0.0000 C   0  0  0  0  0  0  0  0  0  0  0  0
    1.9598    0.0000    0.0000 C   0  0  0  0  0  0  0  0  0  0  0  0
    1.3858    1.3858    0.0000 C   0  0  0  0  0  0  0  0  0  0  0  0
    0.0000    1.9598    0.0000 C   0  0  0  0  0  0  0  0  0  0  0  0
   -1.3858    1.3858    0.0000 C   0  0  0  0  0  0  0  0  0  0  0  0
   -1.9598    0.0000    0.0000 C   0  0  0  0  0  0  0  0  0  0  0  0
   -1.3858   -1.3858    0.0000 C   0  0  0  0  0  0  0  0  0  0  0  0
  1  2  1  0
  2  3  2  0
  3  4  1  0
  4  5  2  0
  5  6  1  0
  6  7  2  0
  6  8  1  0
  8  9  2  0
  9 10  1  0
 10 11  2  0
 11 12  1  0
 12 13  2  0
  7  2  1  0
 13  5  1  0
M  END
>  <Title>  (666) 
idAAZPgen7

$$$$

     RDKit          2D

 57 66  0  0  0  0  0  0  0  0999 V2000
    8.5683   -1.2295    0.0000 C   0  0  0  0  0  0  0  0  0  0  0  0
    7.5646   -0.1148    0.0000 O   0  0  0  0  0  0  0  0  0  0  0  0
    6.0974   -0.4266    0.0000 C   0  0  0  0  0  0  0  0  0  0  0  0
    4.9826    0.5771    0.0000 C   0  0  0  0  0  0  0  0  0  0  0  0
    3.6836   -0.1729    0.0000 C   0  0  0  0  0  0  0  0  0  0  0  0
    3.9955   -1.6402    0.0000 C   0  0  0  0  0  0  0  0  0  0  0  0
    2.9918   -2.7549    0.0000 C   0  0  0  0  0  0  0  0  0  0  0  0
    3.3037   -4.2221    0.0000 N   0  0  0  0  0  0  0  0  0  0  0  0
    2.0046   -4.9721    0.0000 N   0  0  0  0  0  0  0  0  0  0  0  0
    0.8899   -3.9684    0.0000 N   0  0  0  0  0  0  0  0  0  0  0  0
    1.5000   -2.5981    0.0000 N   0  0  0  0  0  0  0  0  0  0  0  0
    0.7500   -1.2990    0.0000 C   0  0  0  0  0  0  0  0  0  0  0  0
    1.5000    0.0000    0.0000 C   0  0  0  0  0  0  0  0  0  0  0  0
    0.7500    1.2990    0.0000 C   0  0  0  0  0  0  0  0  0  0  0  0
   -0.7500    1.2990    0.0000 C   0  0  0  0  0  0  0  0  0  0  0  0
   -1.5000    2.5981    0.0000 C   0  0  0  0  0  0  0  0  0  0  0  0
   -2.9918    2.7549    0.0000 C   0  0  0  0  0  0  0  0  0  0  0  0
   -3.3037    4.2221    0.0000 N   0  0  0  0  0  0  0  0  0  0  0  0
   -2.0046    4.9721    0.0000 N   0  0  0  0  0  0  0  0  0  0  0  0
   -0.8899    3.9684    0.0000 N   0  0  0  0  0  0  0  0  0  0  0  0
    0.5773    4.2803    0.0000 C   0  0  0  0  0  0  0  0  0  0  0  0
    1.5810    3.1655    0.0000 C   0  0  0  0  0  0  0  0  0  0  0  0
    3.0482    3.4774    0.0000 C   0  0  0  0  0  0  0  0  0  0  0  0
    3.5118    4.9040    0.0000 C   0  0  0  0  0  0  0  0  0  0  0  0
    2.5081    6.0187    0.0000 C   0  0  0  0  0  0  0  0  0  0  0  0
    1.0409    5.7068    0.0000 C   0  0  0  0  0  0  0  0  0  0  0  0
    0.0372    6.8216    0.0000 N   0  0  0  0  0  0  0  0  0  0  0  0
   -1.4546    6.6648    0.0000 N   0  0  0  0  0  0  0  0  0  0  0  0
   -2.0647    8.0351    0.0000 N   0  0  0  0  0  0  0  0  0  0  0  0
   -0.9500    9.0388    0.0000 N   0  0  0  0  0  0  0  0  0  0  0  0
    0.3490    8.2888    0.0000 C   0  0  0  0  0  0  0  0  0  0  0  0
    1.7193    8.8989    0.0000 C   0  0  0  0  0  0  0  0  0  0  0  0
    2.9329    8.0172    0.0000 C   0  0  0  0  0  0  0  0  0  0  0  0
    4.3032    8.6273    0.0000 C   0  0  0  0  0  0  0  0  0  0  0  0
    4.4600   10.1191    0.0000 C   0  0  0  0  0  0  0  0  0  0  0  0
    3.2465   11.0008    0.0000 C   0  0  0  0  0  0  0  0  0  0  0  0
    1.8761   10.3907    0.0000 C   0  0  0  0  0  0  0  0  0  0  0  0
   -1.5000    0.0000    0.0000 C   0  0  0  0  0  0  0  0  0  0  0  0
   -0.7500   -1.2990    0.0000 C   0  0  0  0  0  0  0  0  0  0  0  0
   -1.5000   -2.5981    0.0000 N   0  0  0  0  0  0  0  0  0  0  0  0
   -0.8899   -3.9684    0.0000 N   0  0  0  0  0  0  0  0  0  0  0  0
   -2.0046   -4.9721    0.0000 N   0  0  0  0  0  0  0  0  0  0  0  0
   -3.3037   -4.2221    0.0000 N   0  0  0  0  0  0  0  0  0  0  0  0
   -2.9918   -2.7549    0.0000 C   0  0  0  0  0  0  0  0  0  0  0  0
   -3.9955   -1.6402    0.0000 C   0  0  0  0  0  0  0  0  0  0  0  0
   -5.4873   -1.7969    0.0000 C   0  0  0  0  0  0  0  0  0  0  0  0
   -6.0974   -0.4266    0.0000 C   0  0  0  0  0  0  0  0  0  0  0  0
   -4.9826    0.5771    0.0000 C   0  0  0  0  0  0  0  0  0  0  0  0
   -5.1394    2.0689    0.0000 C   0  0  0  0  0  0  0  0  0  0  0  0
   -3.9259    2.9505    0.0000 C   0  0  0  0  0  0  0  0  0  0  0  0
   -4.0827    4.4423    0.0000 C   0  0  0  0  0  0  0  0  0  0  0  0
   -5.4530    5.0524    0.0000 C   0  0  0  0  0  0  0  0  0  0  0  0
   -6.6666    4.1707    0.0000 C   0  0  0  0  0  0  0  0  0  0  0  0
   -6.5098    2.6790    0.0000 C   0  0  0  0  0  0  0  0  0  0  0  0
   -3.6836   -0.1729    0.0000 C   0  0  0  0  0  0  0  0  0  0  0  0
   -2.3133    0.4372    0.0000 O   0  0  0  0  0  0  0  0  0  0  0  0
    5.4873   -1.7969    0.0000 C   0  0  0  0  0  0  0  0  0  0  0  0
  1  2  1  0
  2  3  1  0
  3  4  2  0
  4  5  1  0
  5  6  2  0
  6  7  1  0
  7  8  2  0
  8  9  1  0
  9 10  2  0
 10 11  1  0
 11 12  1  0
 12 13  2  0
 13 14  1  0
 14 15  2  0
 15 16  1  0
 16 17  2  0
 17 18  1  0
 18 19  2  0
 19 20  1  0
 20 21  1  0
 21 22  2  0
 22 23  1  0
 23 24  2  0
 24 25  1  0
 25 26  2  0
 26 27  1  0
 27 28  1  0
 28 29  2  0
 29 30  1  0
 30 31  2  0
 31 32  1  0
 32 33  2  0
 33 34  1  0
 34 35  2  0
 35 36  1  0
 36 37  2  0
 15 38  1  0
 38 39  2  0
 39 40  1  0
 40 41  1  0
 41 42  2  0
 42 43  1  0
 43 44  2  0
 44 45  1  0
 45 46  2  0
 46 47  1  0
 47 48  2  0
 48 49  1  0
 49 50  2  0
 50 51  1  0
 51 52  2  0
 52 53  1  0
 53 54  2  0
 48 55  1  0
 55 56  2  0
  6 57  1  0
 57  3  1  0
 11  7  1  0
 39 12  1  0
 44 40  1  0
 55 45  1  0
 20 16  1  0
 26 21  1  0
 31 27  1  0
 37 32  1  0
 54 49  1  0
M  END
>  <Title>  (667) 
idAAZQgen7

$$$$

     RDKit          2D

 45 49  0  0  0  0  0  0  0  0999 V2000
    7.5000   -2.5981    0.0000 C   0  0  0  0  0  0  0  0  0  0  0  0
    6.0000   -2.5981    0.0000 C   0  0  0  0  0  0  0  0  0  0  0  0
    5.2500   -3.8971    0.0000 O   0  0  0  0  0  0  0  0  0  0  0  0
    5.2500   -1.2990    0.0000 N   0  0  0  0  0  0  0  0  0  0  0  0
    3.7500   -1.2990    0.0000 C   0  0  0  0  0  0  0  0  0  0  0  0
    3.0000   -2.5981    0.0000 O   0  0  0  0  0  0  0  0  0  0  0  0
    3.0000    0.0000    0.0000 C   0  0  0  0  0  0  0  0  0  0  0  0
    1.5000    0.0000    0.0000 C   0  0  0  0  0  0  0  0  0  0  0  0
    0.7500   -1.2990    0.0000 C   0  0  0  0  0  0  0  0  0  0  0  0
   -0.7500   -1.2990    0.0000 C   0  0  0  0  0  0  0  0  0  0  0  0
   -1.5000    0.0000    0.0000 C   0  0  0  0  0  0  0  0  0  0  0  0
   -3.0000    0.0000    0.0000 C   0  0  0  0  0  0  0  0  0  0  0  0
   -3.7500   -1.2990    0.0000 O   0  0  0  0  0  0  0  0  0  0  0  0
   -3.7500    1.2990    0.0000 N   0  0  0  0  0  0  0  0  0  0  0  0
   -5.2500    1.2990    0.0000 C   0  0  0  0  0  0  0  0  0  0  0  0
   -6.1317    0.0855    0.0000 N   0  0  0  0  0  0  0  0  0  0  0  0
   -7.5583    0.5490    0.0000 N   0  0  0  0  0  0  0  0  0  0  0  0
   -7.5583    2.0490    0.0000 N   0  0  0  0  0  0  0  0  0  0  0  0
   -6.1317    2.5126    0.0000 N   0  0  0  0  0  0  0  0  0  0  0  0
   -5.6682    3.9391    0.0000 C   0  0  0  0  0  0  0  0  0  0  0  0
   -4.2009    4.2510    0.0000 C   0  0  0  0  0  0  0  0  0  0  0  0
   -3.7374    5.6776    0.0000 C   0  0  0  0  0  0  0  0  0  0  0  0
   -4.7411    6.7923    0.0000 C   0  0  0  0  0  0  0  0  0  0  0  0
   -4.2776    8.2189    0.0000 C   0  0  0  0  0  0  0  0  0  0  0  0
   -2.8104    8.5308    0.0000 C   0  0  0  0  0  0  0  0  0  0  0  0
   -2.3468    9.9574    0.0000 C   0  0  0  0  0  0  0  0  0  0  0  0
   -3.3505   11.0721    0.0000 C   0  0  0  0  0  0  0  0  0  0  0  0
   -4.8177   10.7602    0.0000 C   0  0  0  0  0  0  0  0  0  0  0  0
   -5.2813    9.3336    0.0000 C   0  0  0  0  0  0  0  0  0  0  0  0
   -6.2083    6.4805    0.0000 C   0  0  0  0  0  0  0  0  0  0  0  0
   -6.6718    5.0539    0.0000 C   0  0  0  0  0  0  0  0  0  0  0  0
   -8.1391    4.7420    0.0000 C   0  0  0  0  0  0  0  0  0  0  0  0
   -8.6026    3.3154    0.0000 C   0  0  0  0  0  0  0  0  0  0  0  0
  -10.0698    3.0035    0.0000 C   0  0  0  0  0  0  0  0  0  0  0  0
  -11.0735    4.1183    0.0000 C   0  0  0  0  0  0  0  0  0  0  0  0
  -12.5407    3.8064    0.0000 C   0  0  0  0  0  0  0  0  0  0  0  0
  -13.5444    4.9211    0.0000 O   0  0  0  0  0  0  0  0  0  0  0  0
  -13.0043    2.3798    0.0000 N   0  0  0  0  0  0  0  0  0  0  0  0
  -14.4715    2.0679    0.0000 O   0  0  0  0  0  0  0  0  0  0  0  0
  -10.6100    5.5448    0.0000 N   0  0  0  0  0  0  0  0  0  0  0  0
   -9.1428    5.8567    0.0000 C   0  0  0  0  0  0  0  0  0  0  0  0
   -8.6792    7.2833    0.0000 O   0  0  0  0  0  0  0  0  0  0  0  0
   -0.7500    1.2990    0.0000 C   0  0  0  0  0  0  0  0  0  0  0  0
   -1.5000    2.5981    0.0000 O   0  0  0  0  0  0  0  0  0  0  0  0
    0.7500    1.2990    0.0000 N   0  0  0  0  0  0  0  0  0  0  0  0
  1  2  1  0
  2  3  2  0
  2  4  1  0
  4  5  1  0
  5  6  2  0
  5  7  1  0
  7  8  1  0
  8  9  2  0
  9 10  1  0
 10 11  2  0
 11 12  1  0
 12 13  2  0
 12 14  1  0
 14 15  1  0
 15 16  2  0
 16 17  1  0
 17 18  2  0
 18 19  1  0
 19 20  1  0
 20 21  2  0
 21 22  1  0
 22 23  2  0
 23 24  1  0
 24 25  2  0
 25 26  1  0
 26 27  2  0
 27 28  1  0
 28 29  2  0
 23 30  1  0
 30 31  2  0
 31 32  1  0
 32 33  2  0
 33 34  1  0
 34 35  2  0
 35 36  1  0
 36 37  2  0
 36 38  1  0
 38 39  1  0
 35 40  1  0
 40 41  1  0
 41 42  2  0
 11 43  1  0
 43 44  2  0
 43 45  1  0
 45  8  1  0
 19 15  1  0
 31 20  1  0
 41 32  1  0
 29 24  1  0
M  END
>  <Title>  (668) 
idAAZRgen7

$$$$

     RDKit          2D

 42 47  0  0  0  0  0  0  0  0999 V2000
    3.0000    0.0000    0.0000 C   0  0  0  0  0  0  0  0  0  0  0  0
    1.5000    0.0000    0.0000 C   0  0  0  0  0  0  0  0  0  0  0  0
    0.7500   -1.2990    0.0000 C   0  0  0  0  0  0  0  0  0  0  0  0
   -0.7500   -1.2990    0.0000 C   0  0  0  0  0  0  0  0  0  0  0  0
   -1.5000    0.0000    0.0000 C   0  0  0  0  0  0  0  0  0  0  0  0
   -3.0000    0.0000    0.0000 C   0  0  0  0  0  0  0  0  0  0  0  0
   -3.7500   -1.2990    0.0000 O   0  0  0  0  0  0  0  0  0  0  0  0
   -3.7500    1.2990    0.0000 N   0  0  0  0  0  0  0  0  0  0  0  0
   -5.2500    1.2990    0.0000 C   0  0  0  0  0  0  0  0  0  0  0  0
   -6.1317    0.0855    0.0000 N   0  0  0  0  0  0  0  0  0  0  0  0
   -7.5583    0.5490    0.0000 C   0  0  0  0  0  0  0  0  0  0  0  0
   -8.7718   -0.3326    0.0000 C   0  0  0  0  0  0  0  0  0  0  0  0
   -8.6150   -1.8244    0.0000 O   0  0  0  0  0  0  0  0  0  0  0  0
  -10.1421    0.2775    0.0000 N   0  0  0  0  0  0  0  0  0  0  0  0
  -11.3556   -0.6042    0.0000 C   0  0  0  0  0  0  0  0  0  0  0  0
  -12.7260    0.0059    0.0000 C   0  0  0  0  0  0  0  0  0  0  0  0
  -13.9395   -0.8758    0.0000 C   0  0  0  0  0  0  0  0  0  0  0  0
  -13.7827   -2.3676    0.0000 C   0  0  0  0  0  0  0  0  0  0  0  0
  -12.4124   -2.9777    0.0000 C   0  0  0  0  0  0  0  0  0  0  0  0
  -11.1988   -2.0960    0.0000 C   0  0  0  0  0  0  0  0  0  0  0  0
   -7.5583    2.0490    0.0000 C   0  0  0  0  0  0  0  0  0  0  0  0
   -6.1317    2.5126    0.0000 C   0  0  0  0  0  0  0  0  0  0  0  0
   -5.6682    3.9391    0.0000 C   0  0  0  0  0  0  0  0  0  0  0  0
   -4.2009    4.2510    0.0000 C   0  0  0  0  0  0  0  0  0  0  0  0
   -3.7374    5.6776    0.0000 C   0  0  0  0  0  0  0  0  0  0  0  0
   -4.7411    6.7923    0.0000 C   0  0  0  0  0  0  0  0  0  0  0  0
   -4.2776    8.2189    0.0000 C   0  0  0  0  0  0  0  0  0  0  0  0
   -5.1593    9.4324    0.0000 N   0  0  0  0  0  0  0  0  0  0  0  0
   -4.2776   10.6460    0.0000 N   0  0  0  0  0  0  0  0  0  0  0  0
   -2.8510   10.1824    0.0000 N   0  0  0  0  0  0  0  0  0  0  0  0
   -2.8510    8.6824    0.0000 N   0  0  0  0  0  0  0  0  0  0  0  0
   -1.6375    7.8008    0.0000 C   0  0  0  0  0  0  0  0  0  0  0  0
   -1.7943    6.3090    0.0000 C   0  0  0  0  0  0  0  0  0  0  0  0
   -0.5807    5.4273    0.0000 C   0  0  0  0  0  0  0  0  0  0  0  0
    0.7896    6.0374    0.0000 C   0  0  0  0  0  0  0  0  0  0  0  0
    0.9464    7.5292    0.0000 C   0  0  0  0  0  0  0  0  0  0  0  0
   -0.2671    8.4109    0.0000 C   0  0  0  0  0  0  0  0  0  0  0  0
   -6.2083    6.4805    0.0000 C   0  0  0  0  0  0  0  0  0  0  0  0
   -6.6718    5.0539    0.0000 C   0  0  0  0  0  0  0  0  0  0  0  0
   -0.7500    1.2990    0.0000 C   0  0  0  0  0  0  0  0  0  0  0  0
   -1.5000    2.5981    0.0000 O   0  0  0  0  0  0  0  0  0  0  0  0
    0.7500    1.2990    0.0000 N   0  0  0  0  0  0  0  0  0  0  0  0
  1  2  1  0
  2  3  2  0
  3  4  1  0
  4  5  2  0
  5  6  1  0
  6  7  2  0
  6  8  1  0
  8  9  1  0
  9 10  2  0
 10 11  1  0
 11 12  1  0
 12 13  2  0
 12 14  1  0
 14 15  1  0
 15 16  2  0
 16 17  1  0
 17 18  2  0
 18 19  1  0
 19 20  2  0
 11 21  1  0
 21 22  2  0
 22 23  1  0
 23 24  2  0
 24 25  1  0
 25 26  2  0
 26 27  1  0
 27 28  2  0
 28 29  1  0
 29 30  2  0
 30 31  1  0
 31 32  1  0
 32 33  2  0
 33 34  1  0
 34 35  2  0
 35 36  1  0
 36 37  2  0
 26 38  1  0
 38 39  2  0
  5 40  1  0
 40 41  2  0
 40 42  1  0
 42  2  1  0
 22  9  1  0
 39 23  1  0
 20 15  1  0
 31 27  1  0
 37 32  1  0
M  END
>  <Title>  (669) 
idAAZSgen7

$$$$

     RDKit          2D

 11 11  0  0  0  0  0  0  0  0999 V2000
    3.4598   -0.0000    0.0000 C   0  0  0  0  0  0  0  0  0  0  0  0
    1.9598    0.0000    0.0000 C   0  0  0  0  0  0  0  0  0  0  0  0
    1.3858   -1.3858    0.0000 C   0  0  0  0  0  0  0  0  0  0  0  0
   -0.0000   -1.9598    0.0000 C   0  0  0  0  0  0  0  0  0  0  0  0
   -1.3858   -1.3858    0.0000 C   0  0  0  0  0  0  0  0  0  0  0  0
   -1.9598    0.0000    0.0000 C   0  0  0  0  0  0  0  0  0  0  0  0
   -1.3858    1.3858    0.0000 C   0  0  0  0  0  0  0  0  0  0  0  0
   -2.4465    2.4465    0.0000 C   0  0  0  0  0  0  0  0  0  0  0  0
    0.0000    1.9598    0.0000 C   0  0  0  0  0  0  0  0  0  0  0  0
    0.0000    3.4598    0.0000 C   0  0  0  0  0  0  0  0  0  0  0  0
    1.3858    1.3858    0.0000 C   0  0  0  0  0  0  0  0  0  0  0  0
  1  2  1  0
  2  3  1  0
  3  4  1  0
  4  5  1  0
  5  6  1  0
  6  7  1  0
  7  8  1  0
  7  9  1  0
  9 10  1  0
  9 11  1  0
 11  2  1  0
M  END
>  <Title>  (670) 
idAAZTgen7

$$$$

     RDKit          2D

 31 35  0  0  0  0  0  0  0  0999 V2000
    3.0000    0.0000    0.0000 C   0  0  0  0  0  0  0  0  0  0  0  0
    1.5000    0.0000    0.0000 C   0  0  0  0  0  0  0  0  0  0  0  0
    0.7500    1.2990    0.0000 C   0  0  0  0  0  0  0  0  0  0  0  0
   -0.7500    1.2990    0.0000 C   0  0  0  0  0  0  0  0  0  0  0  0
   -1.5000    0.0000    0.0000 C   0  0  0  0  0  0  0  0  0  0  0  0
   -3.0000    0.0000    0.0000 C   0  0  0  0  0  0  0  0  0  0  0  0
   -3.7500    1.2990    0.0000 C   0  0  0  0  0  0  0  0  0  0  0  0
   -5.2418    1.4558    0.0000 N   0  0  0  0  0  0  0  0  0  0  0  0
   -5.5537    2.9231    0.0000 N   0  0  0  0  0  0  0  0  0  0  0  0
   -4.2546    3.6731    0.0000 N   0  0  0  0  0  0  0  0  0  0  0  0
   -3.1399    2.6694    0.0000 N   0  0  0  0  0  0  0  0  0  0  0  0
   -1.6727    2.9812    0.0000 C   0  0  0  0  0  0  0  0  0  0  0  0
   -1.0626    4.3515    0.0000 C   0  0  0  0  0  0  0  0  0  0  0  0
    0.4292    4.1947    0.0000 C   0  0  0  0  0  0  0  0  0  0  0  0
    0.7411    2.7275    0.0000 C   0  0  0  0  0  0  0  0  0  0  0  0
    2.1114    2.1174    0.0000 C   0  0  0  0  0  0  0  0  0  0  0  0
    2.4233    0.6502    0.0000 N   0  0  0  0  0  0  0  0  0  0  0  0
    3.9151    0.4934    0.0000 N   0  0  0  0  0  0  0  0  0  0  0  0
    4.5252    1.8637    0.0000 N   0  0  0  0  0  0  0  0  0  0  0  0
    3.4104    2.8674    0.0000 N   0  0  0  0  0  0  0  0  0  0  0  0
    3.5672    4.3592    0.0000 C   0  0  0  0  0  0  0  0  0  0  0  0
    2.3537    5.2409    0.0000 C   0  0  0  0  0  0  0  0  0  0  0  0
    2.5105    6.7327    0.0000 C   0  0  0  0  0  0  0  0  0  0  0  0
    3.8808    7.3428    0.0000 C   0  0  0  0  0  0  0  0  0  0  0  0
    5.0943    6.4611    0.0000 C   0  0  0  0  0  0  0  0  0  0  0  0
    4.9375    4.9693    0.0000 C   0  0  0  0  0  0  0  0  0  0  0  0
   -0.5580    1.9775    0.0000 C   0  0  0  0  0  0  0  0  0  0  0  0
   -0.7147    0.4857    0.0000 O   0  0  0  0  0  0  0  0  0  0  0  0
   -0.7500   -1.2990    0.0000 C   0  0  0  0  0  0  0  0  0  0  0  0
   -1.5000   -2.5981    0.0000 O   0  0  0  0  0  0  0  0  0  0  0  0
    0.7500   -1.2990    0.0000 N   0  0  0  0  0  0  0  0  0  0  0  0
  1  2  1  0
  2  3  2  0
  3  4  1  0
  4  5  2  0
  5  6  1  0
  6  7  1  0
  7  8  2  0
  8  9  1  0
  9 10  2  0
 10 11  1  0
 11 12  1  0
 12 13  2  0
 13 14  1  0
 14 15  2  0
 15 16  1  0
 16 17  2  0
 17 18  1  0
 18 19  2  0
 19 20  1  0
 20 21  1  0
 21 22  2  0
 22 23  1  0
 23 24  2  0
 24 25  1  0
 25 26  2  0
 15 27  1  0
 27 28  2  0
  5 29  1  0
 29 30  2  0
 29 31  1  0
 31  2  1  0
 11  7  1  0
 27 12  1  0
 20 16  1  0
 26 21  1  0
M  END
>  <Title>  (671) 
idAAZUgen7

$$$$

     RDKit          2D

 31 35  0  0  0  0  0  0  0  0999 V2000
    3.0000    0.0000    0.0000 C   0  0  0  0  0  0  0  0  0  0  0  0
    1.5000    0.0000    0.0000 C   0  0  0  0  0  0  0  0  0  0  0  0
    0.7500    1.2990    0.0000 C   0  0  0  0  0  0  0  0  0  0  0  0
   -0.7500    1.2990    0.0000 C   0  0  0  0  0  0  0  0  0  0  0  0
   -1.5000    0.0000    0.0000 C   0  0  0  0  0  0  0  0  0  0  0  0
   -3.0000    0.0000    0.0000 C   0  0  0  0  0  0  0  0  0  0  0  0
   -3.8817   -1.2135    0.0000 N   0  0  0  0  0  0  0  0  0  0  0  0
   -5.3083   -0.7500    0.0000 N   0  0  0  0  0  0  0  0  0  0  0  0
   -5.3083    0.7500    0.0000 N   0  0  0  0  0  0  0  0  0  0  0  0
   -3.8817    1.2135    0.0000 N   0  0  0  0  0  0  0  0  0  0  0  0
   -3.4182    2.6401    0.0000 C   0  0  0  0  0  0  0  0  0  0  0  0
   -1.9509    2.9520    0.0000 C   0  0  0  0  0  0  0  0  0  0  0  0
   -1.4874    4.3786    0.0000 C   0  0  0  0  0  0  0  0  0  0  0  0
   -2.4911    5.4933    0.0000 C   0  0  0  0  0  0  0  0  0  0  0  0
   -2.0276    6.9199    0.0000 C   0  0  0  0  0  0  0  0  0  0  0  0
   -0.5604    7.2317    0.0000 C   0  0  0  0  0  0  0  0  0  0  0  0
   -0.0968    8.6583    0.0000 C   0  0  0  0  0  0  0  0  0  0  0  0
   -1.1005    9.7730    0.0000 C   0  0  0  0  0  0  0  0  0  0  0  0
   -2.5677    9.4612    0.0000 C   0  0  0  0  0  0  0  0  0  0  0  0
   -3.0313    8.0346    0.0000 C   0  0  0  0  0  0  0  0  0  0  0  0
   -4.4985    7.7227    0.0000 C   0  0  0  0  0  0  0  0  0  0  0  0
   -5.5022    8.8374    0.0000 C   0  0  0  0  0  0  0  0  0  0  0  0
   -6.9694    8.5256    0.0000 C   0  0  0  0  0  0  0  0  0  0  0  0
   -7.4329    7.0990    0.0000 C   0  0  0  0  0  0  0  0  0  0  0  0
   -6.4292    5.9843    0.0000 C   0  0  0  0  0  0  0  0  0  0  0  0
   -4.9620    6.2961    0.0000 C   0  0  0  0  0  0  0  0  0  0  0  0
   -3.9583    5.1814    0.0000 C   0  0  0  0  0  0  0  0  0  0  0  0
   -4.4218    3.7548    0.0000 C   0  0  0  0  0  0  0  0  0  0  0  0
   -0.7500   -1.2990    0.0000 C   0  0  0  0  0  0  0  0  0  0  0  0
   -1.5000   -2.5981    0.0000 O   0  0  0  0  0  0  0  0  0  0  0  0
    0.7500   -1.2990    0.0000 N   0  0  0  0  0  0  0  0  0  0  0  0
  1  2  1  0
  2  3  2  0
  3  4  1  0
  4  5  2  0
  5  6  1  0
  6  7  2  0
  7  8  1  0
  8  9  2  0
  9 10  1  0
 10 11  1  0
 11 12  2  0
 12 13  1  0
 13 14  2  0
 14 15  1  0
 15 16  2  0
 16 17  1  0
 17 18  2  0
 18 19  1  0
 19 20  2  0
 20 21  1  0
 21 22  2  0
 22 23  1  0
 23 24  2  0
 24 25  1  0
 25 26  2  0
 14 27  1  0
 27 28  2  0
  5 29  1  0
 29 30  2  0
 29 31  1  0
 31  2  1  0
 10  6  1  0
 28 11  1  0
 20 15  1  0
 26 21  1  0
M  END
>  <Title>  (672) 
idAAZVgen7

$$$$

     RDKit          2D

 12 12  0  0  0  0  0  0  0  0999 V2000
    4.1621    0.0000    0.0000 O   0  0  0  0  0  0  0  0  0  0  0  0
    2.6621    0.0000    0.0000 C   0  0  0  0  0  0  0  0  0  0  0  0
    2.2395    1.4392    0.0000 C   0  0  0  0  0  0  0  0  0  0  0  0
    1.1059    2.4215    0.0000 C   0  0  0  0  0  0  0  0  0  0  0  0
   -0.3789    2.6350    0.0000 C   0  0  0  0  0  0  0  0  0  0  0  0
   -1.7433    2.0119    0.0000 C   0  0  0  0  0  0  0  0  0  0  0  0
   -2.5543    0.7500    0.0000 C   0  0  0  0  0  0  0  0  0  0  0  0
   -2.5543   -0.7500    0.0000 C   0  0  0  0  0  0  0  0  0  0  0  0
   -1.7433   -2.0119    0.0000 C   0  0  0  0  0  0  0  0  0  0  0  0
   -0.3789   -2.6350    0.0000 C   0  0  0  0  0  0  0  0  0  0  0  0
    1.1059   -2.4215    0.0000 C   0  0  0  0  0  0  0  0  0  0  0  0
    2.2395   -1.4392    0.0000 C   0  0  0  0  0  0  0  0  0  0  0  0
  1  2  1  0
  2  3  2  0
  3  4  1  0
  4  5  2  0
  5  6  1  0
  6  7  2  0
  7  8  1  0
  8  9  2  0
  9 10  1  0
 10 11  2  0
 11 12  1  0
 12  2  1  0
M  END
>  <Title>  (673) 
idAAZWgen7

$$$$

     RDKit          2D

 33 36  0  0  0  0  0  0  0  0999 V2000
    7.6144    2.9069    0.0000 C   0  0  0  0  0  0  0  0  0  0  0  0
    6.6686    4.0712    0.0000 O   0  0  0  0  0  0  0  0  0  0  0  0
    5.1874    3.8342    0.0000 C   0  0  0  0  0  0  0  0  0  0  0  0
    4.9035    2.3613    0.0000 C   0  0  0  0  0  0  0  0  0  0  0  0
    3.7393    1.4154    0.0000 C   0  0  0  0  0  0  0  0  0  0  0  0
    2.2395    1.4392    0.0000 C   0  0  0  0  0  0  0  0  0  0  0  0
    2.6621    0.0000    0.0000 C   0  0  0  0  0  0  0  0  0  0  0  0
    2.2395   -1.4392    0.0000 C   0  0  0  0  0  0  0  0  0  0  0  0
    1.1059   -2.4215    0.0000 C   0  0  0  0  0  0  0  0  0  0  0  0
   -0.3789   -2.6350    0.0000 C   0  0  0  0  0  0  0  0  0  0  0  0
   -1.7433   -2.0119    0.0000 C   0  0  0  0  0  0  0  0  0  0  0  0
   -2.5543   -0.7500    0.0000 C   0  0  0  0  0  0  0  0  0  0  0  0
   -2.5543    0.7500    0.0000 C   0  0  0  0  0  0  0  0  0  0  0  0
   -1.7433    2.0119    0.0000 C   0  0  0  0  0  0  0  0  0  0  0  0
   -0.3789    2.6350    0.0000 C   0  0  0  0  0  0  0  0  0  0  0  0
    1.1059    2.4215    0.0000 C   0  0  0  0  0  0  0  0  0  0  0  0
    0.8689    3.9027    0.0000 C   0  0  0  0  0  0  0  0  0  0  0  0
   -0.6309    3.9265    0.0000 C   0  0  0  0  0  0  0  0  0  0  0  0
   -1.3602    5.2373    0.0000 C   0  0  0  0  0  0  0  0  0  0  0  0
   -0.5897    6.5242    0.0000 C   0  0  0  0  0  0  0  0  0  0  0  0
   -1.3190    7.8350    0.0000 C   0  0  0  0  0  0  0  0  0  0  0  0
   -2.8188    7.8588    0.0000 O   0  0  0  0  0  0  0  0  0  0  0  0
   -0.5485    9.1220    0.0000 N   0  0  0  0  0  0  0  0  0  0  0  0
   -1.2778   10.4328    0.0000 C   0  0  0  0  0  0  0  0  0  0  0  0
   -0.5073   11.7197    0.0000 C   0  0  0  0  0  0  0  0  0  0  0  0
   -1.2366   13.0305    0.0000 C   0  0  0  0  0  0  0  0  0  0  0  0
   -2.7364   13.0543    0.0000 C   0  0  0  0  0  0  0  0  0  0  0  0
   -3.5069   11.7673    0.0000 C   0  0  0  0  0  0  0  0  0  0  0  0
   -2.7776   10.4566    0.0000 C   0  0  0  0  0  0  0  0  0  0  0  0
    0.9101    6.5004    0.0000 C   0  0  0  0  0  0  0  0  0  0  0  0
    1.6394    5.1897    0.0000 C   0  0  0  0  0  0  0  0  0  0  0  0
    3.0569    5.6803    0.0000 C   0  0  0  0  0  0  0  0  0  0  0  0
    4.4581    5.1449    0.0000 C   0  0  0  0  0  0  0  0  0  0  0  0
  1  2  1  0
  2  3  1  0
  3  4  2  0
  4  5  1  0
  5  6  2  0
  6  7  1  0
  7  8  2  0
  8  9  1  0
  9 10  2  0
 10 11  1  0
 11 12  2  0
 12 13  1  0
 13 14  2  0
 14 15  1  0
 15 16  2  0
 16 17  1  0
 17 18  2  0
 18 19  1  0
 19 20  2  0
 20 21  1  0
 21 22  2  0
 21 23  1  0
 23 24  1  0
 24 25  2  0
 25 26  1  0
 26 27  2  0
 27 28  1  0
 28 29  2  0
 20 30  1  0
 30 31  2  0
 31 32  1  0
 32 33  1  0
 33  3  1  0
 16  6  1  0
 31 17  1  0
 29 24  1  0
M  END
>  <Title>  (674) 
idAAZXgen7

$$$$

     RDKit          2D

 33 37  0  0  0  0  0  0  0  0999 V2000
    3.7500   -1.2990    0.0000 C   0  0  0  0  0  0  0  0  0  0  0  0
    3.0000    0.0000    0.0000 O   0  0  0  0  0  0  0  0  0  0  0  0
    1.5000    0.0000    0.0000 C   0  0  0  0  0  0  0  0  0  0  0  0
    0.7500   -1.2990    0.0000 C   0  0  0  0  0  0  0  0  0  0  0  0
   -0.7500   -1.2990    0.0000 C   0  0  0  0  0  0  0  0  0  0  0  0
   -1.5000    0.0000    0.0000 C   0  0  0  0  0  0  0  0  0  0  0  0
   -3.0000    0.0000    0.0000 N   0  0  0  0  0  0  0  0  0  0  0  0
   -3.7500    1.2990    0.0000 C   0  0  0  0  0  0  0  0  0  0  0  0
   -3.0000    2.5981    0.0000 O   0  0  0  0  0  0  0  0  0  0  0  0
   -5.2500    1.2990    0.0000 C   0  0  0  0  0  0  0  0  0  0  0  0
   -6.1317    0.0855    0.0000 N   0  0  0  0  0  0  0  0  0  0  0  0
   -7.5583    0.5490    0.0000 N   0  0  0  0  0  0  0  0  0  0  0  0
   -7.5583    2.0490    0.0000 N   0  0  0  0  0  0  0  0  0  0  0  0
   -6.1317    2.5126    0.0000 N   0  0  0  0  0  0  0  0  0  0  0  0
   -5.6682    3.9391    0.0000 C   0  0  0  0  0  0  0  0  0  0  0  0
   -4.2009    4.2510    0.0000 C   0  0  0  0  0  0  0  0  0  0  0  0
   -3.7374    5.6776    0.0000 C   0  0  0  0  0  0  0  0  0  0  0  0
   -4.7411    6.7923    0.0000 C   0  0  0  0  0  0  0  0  0  0  0  0
   -4.2776    8.2189    0.0000 C   0  0  0  0  0  0  0  0  0  0  0  0
   -2.8104    8.5308    0.0000 C   0  0  0  0  0  0  0  0  0  0  0  0
   -2.3468    9.9574    0.0000 C   0  0  0  0  0  0  0  0  0  0  0  0
   -3.3505   11.0721    0.0000 C   0  0  0  0  0  0  0  0  0  0  0  0
   -4.8177   10.7602    0.0000 C   0  0  0  0  0  0  0  0  0  0  0  0
   -5.2813    9.3336    0.0000 C   0  0  0  0  0  0  0  0  0  0  0  0
   -6.2083    6.4805    0.0000 C   0  0  0  0  0  0  0  0  0  0  0  0
   -6.6718    5.0539    0.0000 C   0  0  0  0  0  0  0  0  0  0  0  0
   -8.1391    4.7420    0.0000 N   0  0  0  0  0  0  0  0  0  0  0  0
   -8.7492    3.3717    0.0000 N   0  0  0  0  0  0  0  0  0  0  0  0
  -10.2410    3.5285    0.0000 N   0  0  0  0  0  0  0  0  0  0  0  0
  -10.5528    4.9957    0.0000 N   0  0  0  0  0  0  0  0  0  0  0  0
   -9.2538    5.7457    0.0000 N   0  0  0  0  0  0  0  0  0  0  0  0
   -0.7500    1.2990    0.0000 C   0  0  0  0  0  0  0  0  0  0  0  0
    0.7500    1.2990    0.0000 C   0  0  0  0  0  0  0  0  0  0  0  0
  1  2  1  0
  2  3  1  0
  3  4  2  0
  4  5  1  0
  5  6  2  0
  6  7  1  0
  7  8  1  0
  8  9  2  0
  8 10  1  0
 10 11  2  0
 11 12  1  0
 12 13  2  0
 13 14  1  0
 14 15  1  0
 15 16  2  0
 16 17  1  0
 17 18  2  0
 18 19  1  0
 19 20  2  0
 20 21  1  0
 21 22  2  0
 22 23  1  0
 23 24  2  0
 18 25  1  0
 25 26  2  0
 26 27  1  0
 27 28  1  0
 28 29  2  0
 29 30  1  0
 30 31  2  0
  6 32  1  0
 32 33  2  0
 33  3  1  0
 14 10  1  0
 26 15  1  0
 31 27  1  0
 24 19  1  0
M  END
>  <Title>  (675) 
idAAZYgen7

$$$$

     RDKit          2D

 24 26  0  0  0  0  0  0  0  0999 V2000
    3.0000    0.0000    0.0000 C   0  0  0  0  0  0  0  0  0  0  0  0
    1.5000    0.0000    0.0000 C   0  0  0  0  0  0  0  0  0  0  0  0
    0.7500   -1.2990    0.0000 C   0  0  0  0  0  0  0  0  0  0  0  0
   -0.7500   -1.2990    0.0000 C   0  0  0  0  0  0  0  0  0  0  0  0
   -1.5000    0.0000    0.0000 C   0  0  0  0  0  0  0  0  0  0  0  0
   -3.0000    0.0000    0.0000 C   0  0  0  0  0  0  0  0  0  0  0  0
   -3.7500   -1.2990    0.0000 O   0  0  0  0  0  0  0  0  0  0  0  0
   -3.7500    1.2990    0.0000 C   0  0  0  0  0  0  0  0  0  0  0  0
   -5.2500    1.2990    0.0000 C   0  0  0  0  0  0  0  0  0  0  0  0
   -6.1317    0.0855    0.0000 N   0  0  0  0  0  0  0  0  0  0  0  0
   -7.5583    0.5490    0.0000 N   0  0  0  0  0  0  0  0  0  0  0  0
   -7.5583    2.0490    0.0000 N   0  0  0  0  0  0  0  0  0  0  0  0
   -6.1317    2.5126    0.0000 N   0  0  0  0  0  0  0  0  0  0  0  0
   -5.6682    3.9391    0.0000 C   0  0  0  0  0  0  0  0  0  0  0  0
   -4.2009    4.2510    0.0000 C   0  0  0  0  0  0  0  0  0  0  0  0
   -3.7374    5.6776    0.0000 C   0  0  0  0  0  0  0  0  0  0  0  0
   -4.7411    6.7923    0.0000 C   0  0  0  0  0  0  0  0  0  0  0  0
   -4.2776    8.2189    0.0000 C   0  0  0  0  0  0  0  0  0  0  0  0
   -6.2083    6.4805    0.0000 C   0  0  0  0  0  0  0  0  0  0  0  0
   -7.2120    7.5952    0.0000 O   0  0  0  0  0  0  0  0  0  0  0  0
   -6.6718    5.0539    0.0000 N   0  0  0  0  0  0  0  0  0  0  0  0
   -0.7500    1.2990    0.0000 C   0  0  0  0  0  0  0  0  0  0  0  0
   -1.5000    2.5981    0.0000 O   0  0  0  0  0  0  0  0  0  0  0  0
    0.7500    1.2990    0.0000 N   0  0  0  0  0  0  0  0  0  0  0  0
  1  2  1  0
  2  3  2  0
  3  4  1  0
  4  5  2  0
  5  6  1  0
  6  7  2  0
  6  8  1  0
  8  9  1  0
  9 10  2  0
 10 11  1  0
 11 12  2  0
 12 13  1  0
 13 14  1  0
 14 15  2  0
 15 16  1  0
 16 17  2  0
 17 18  1  0
 17 19  1  0
 19 20  2  0
 19 21  1  0
  5 22  1  0
 22 23  2  0
 22 24  1  0
 24  2  1  0
 13  9  1  0
 21 14  1  0
M  END
>  <Title>  (676) 
idAAZZgen7

$$$$

     RDKit          2D

 39 44  0  0  0  0  0  0  0  0999 V2000
    3.0000    0.0000    0.0000 C   0  0  0  0  0  0  0  0  0  0  0  0
    1.5000    0.0000    0.0000 C   0  0  0  0  0  0  0  0  0  0  0  0
    0.7500   -1.2990    0.0000 C   0  0  0  0  0  0  0  0  0  0  0  0
   -0.7500   -1.2990    0.0000 C   0  0  0  0  0  0  0  0  0  0  0  0
   -1.5000    0.0000    0.0000 C   0  0  0  0  0  0  0  0  0  0  0  0
   -3.0000    0.0000    0.0000 C   0  0  0  0  0  0  0  0  0  0  0  0
   -3.8817   -1.2135    0.0000 N   0  0  0  0  0  0  0  0  0  0  0  0
   -5.3083   -0.7500    0.0000 N   0  0  0  0  0  0  0  0  0  0  0  0
   -5.3083    0.7500    0.0000 N   0  0  0  0  0  0  0  0  0  0  0  0
   -3.8817    1.2135    0.0000 N   0  0  0  0  0  0  0  0  0  0  0  0
   -3.4182    2.6401    0.0000 C   0  0  0  0  0  0  0  0  0  0  0  0
   -4.2998    3.8536    0.0000 C   0  0  0  0  0  0  0  0  0  0  0  0
   -3.4182    5.0672    0.0000 C   0  0  0  0  0  0  0  0  0  0  0  0
   -1.9916    4.6036    0.0000 C   0  0  0  0  0  0  0  0  0  0  0  0
   -0.7780    5.4853    0.0000 C   0  0  0  0  0  0  0  0  0  0  0  0
    0.5923    4.8752    0.0000 O   0  0  0  0  0  0  0  0  0  0  0  0
   -0.9348    6.9771    0.0000 N   0  0  0  0  0  0  0  0  0  0  0  0
    0.2787    7.8588    0.0000 C   0  0  0  0  0  0  0  0  0  0  0  0
    1.7053    7.3952    0.0000 N   0  0  0  0  0  0  0  0  0  0  0  0
    2.5870    8.6088    0.0000 N   0  0  0  0  0  0  0  0  0  0  0  0
    1.7053    9.8223    0.0000 N   0  0  0  0  0  0  0  0  0  0  0  0
    0.2787    9.3588    0.0000 N   0  0  0  0  0  0  0  0  0  0  0  0
   -0.9348   10.2405    0.0000 C   0  0  0  0  0  0  0  0  0  0  0  0
   -2.3614    9.7769    0.0000 C   0  0  0  0  0  0  0  0  0  0  0  0
   -3.2431   10.9905    0.0000 C   0  0  0  0  0  0  0  0  0  0  0  0
   -2.3614   12.2040    0.0000 C   0  0  0  0  0  0  0  0  0  0  0  0
   -2.8249   13.6306    0.0000 C   0  0  0  0  0  0  0  0  0  0  0  0
   -4.2922   13.9424    0.0000 C   0  0  0  0  0  0  0  0  0  0  0  0
   -4.7557   15.3690    0.0000 C   0  0  0  0  0  0  0  0  0  0  0  0
   -3.7520   16.4837    0.0000 C   0  0  0  0  0  0  0  0  0  0  0  0
   -2.2848   16.1719    0.0000 C   0  0  0  0  0  0  0  0  0  0  0  0
   -1.8212   14.7453    0.0000 C   0  0  0  0  0  0  0  0  0  0  0  0
   -0.9348   11.7405    0.0000 C   0  0  0  0  0  0  0  0  0  0  0  0
    0.2787   12.6221    0.0000 O   0  0  0  0  0  0  0  0  0  0  0  0
   -1.9916    3.1036    0.0000 C   0  0  0  0  0  0  0  0  0  0  0  0
   -0.7780    2.2220    0.0000 O   0  0  0  0  0  0  0  0  0  0  0  0
   -0.7500    1.2990    0.0000 N   0  0  0  0  0  0  0  0  0  0  0  0
    0.7500    1.2990    0.0000 C   0  0  0  0  0  0  0  0  0  0  0  0
    1.5000    2.5981    0.0000 O   0  0  0  0  0  0  0  0  0  0  0  0
  1  2  1  0
  2  3  2  0
  3  4  1  0
  4  5  2  0
  5  6  1  0
  6  7  2  0
  7  8  1  0
  8  9  2  0
  9 10  1  0
 10 11  1  0
 11 12  2  0
 12 13  1  0
 13 14  2  0
 14 15  1  0
 15 16  2  0
 15 17  1  0
 17 18  1  0
 18 19  2  0
 19 20  1  0
 20 21  2  0
 21 22  1  0
 22 23  1  0
 23 24  2  0
 24 25  1  0
 25 26  2  0
 26 27  1  0
 27 28  2  0
 28 29  1  0
 29 30  2  0
 30 31  1  0
 31 32  2  0
 26 33  1  0
 33 34  2  0
 14 35  1  0
 35 36  2  0
  5 37  1  0
 37 38  1  0
 38 39  2  0
 38  2  1  0
 10  6  1  0
 35 11  1  0
 22 18  1  0
 33 23  1  0
 32 27  1  0
M  END
>  <Title>  (677) 
idABAAgen7

$$$$

     RDKit          2D

 20 22  0  0  0  0  0  0  0  0999 V2000
    3.0000    0.0000    0.0000 C   0  0  0  0  0  0  0  0  0  0  0  0
    1.5000    0.0000    0.0000 C   0  0  0  0  0  0  0  0  0  0  0  0
    0.7500   -1.2990    0.0000 C   0  0  0  0  0  0  0  0  0  0  0  0
   -0.7500   -1.2990    0.0000 C   0  0  0  0  0  0  0  0  0  0  0  0
   -1.5000    0.0000    0.0000 C   0  0  0  0  0  0  0  0  0  0  0  0
   -3.0000    0.0000    0.0000 C   0  0  0  0  0  0  0  0  0  0  0  0
   -3.8817   -1.2135    0.0000 C   0  0  0  0  0  0  0  0  0  0  0  0
   -5.3083   -0.7500    0.0000 N   0  0  0  0  0  0  0  0  0  0  0  0
   -5.3083    0.7500    0.0000 N   0  0  0  0  0  0  0  0  0  0  0  0
   -3.8817    1.2135    0.0000 N   0  0  0  0  0  0  0  0  0  0  0  0
   -3.4182    2.6401    0.0000 C   0  0  0  0  0  0  0  0  0  0  0  0
   -1.9509    2.9520    0.0000 C   0  0  0  0  0  0  0  0  0  0  0  0
   -1.4874    4.3786    0.0000 C   0  0  0  0  0  0  0  0  0  0  0  0
   -2.4911    5.4933    0.0000 C   0  0  0  0  0  0  0  0  0  0  0  0
   -2.0276    6.9199    0.0000 C   0  0  0  0  0  0  0  0  0  0  0  0
   -3.9583    5.1814    0.0000 C   0  0  0  0  0  0  0  0  0  0  0  0
   -4.9620    6.2961    0.0000 O   0  0  0  0  0  0  0  0  0  0  0  0
   -4.4218    3.7548    0.0000 N   0  0  0  0  0  0  0  0  0  0  0  0
   -0.7500    1.2990    0.0000 C   0  0  0  0  0  0  0  0  0  0  0  0
    0.7500    1.2990    0.0000 C   0  0  0  0  0  0  0  0  0  0  0  0
  1  2  1  0
  2  3  2  0
  3  4  1  0
  4  5  2  0
  5  6  1  0
  6  7  2  0
  7  8  1  0
  8  9  2  0
  9 10  1  0
 10 11  1  0
 11 12  2  0
 12 13  1  0
 13 14  2  0
 14 15  1  0
 14 16  1  0
 16 17  2  0
 16 18  1  0
  5 19  1  0
 19 20  2  0
 20  2  1  0
 10  6  1  0
 18 11  1  0
M  END
>  <Title>  (678) 
idABABgen7

$$$$

     RDKit          2D

 35 40  0  0  0  0  0  0  0  0999 V2000
    3.0000    0.0000    0.0000 C   0  0  0  0  0  0  0  0  0  0  0  0
    1.5000    0.0000    0.0000 C   0  0  0  0  0  0  0  0  0  0  0  0
    0.7500   -1.2990    0.0000 C   0  0  0  0  0  0  0  0  0  0  0  0
   -0.7500   -1.2990    0.0000 C   0  0  0  0  0  0  0  0  0  0  0  0
   -1.5000    0.0000    0.0000 C   0  0  0  0  0  0  0  0  0  0  0  0
   -3.0000    0.0000    0.0000 C   0  0  0  0  0  0  0  0  0  0  0  0
   -3.8817   -1.2135    0.0000 N   0  0  0  0  0  0  0  0  0  0  0  0
   -5.3083   -0.7500    0.0000 N   0  0  0  0  0  0  0  0  0  0  0  0
   -5.3083    0.7500    0.0000 N   0  0  0  0  0  0  0  0  0  0  0  0
   -3.8817    1.2135    0.0000 N   0  0  0  0  0  0  0  0  0  0  0  0
   -3.4182    2.6401    0.0000 C   0  0  0  0  0  0  0  0  0  0  0  0
   -1.9509    2.9520    0.0000 C   0  0  0  0  0  0  0  0  0  0  0  0
   -1.4874    4.3786    0.0000 C   0  0  0  0  0  0  0  0  0  0  0  0
   -2.4911    5.4933    0.0000 C   0  0  0  0  0  0  0  0  0  0  0  0
   -2.0276    6.9199    0.0000 C   0  0  0  0  0  0  0  0  0  0  0  0
   -2.9093    8.1334    0.0000 N   0  0  0  0  0  0  0  0  0  0  0  0
   -2.0276    9.3469    0.0000 N   0  0  0  0  0  0  0  0  0  0  0  0
   -0.6010    8.8834    0.0000 N   0  0  0  0  0  0  0  0  0  0  0  0
   -0.6010    7.3834    0.0000 N   0  0  0  0  0  0  0  0  0  0  0  0
    0.6125    6.5017    0.0000 C   0  0  0  0  0  0  0  0  0  0  0  0
    0.4557    5.0099    0.0000 C   0  0  0  0  0  0  0  0  0  0  0  0
    1.6693    4.1283    0.0000 C   0  0  0  0  0  0  0  0  0  0  0  0
    3.0396    4.7384    0.0000 C   0  0  0  0  0  0  0  0  0  0  0  0
    3.1964    6.2301    0.0000 C   0  0  0  0  0  0  0  0  0  0  0  0
    1.9829    7.1118    0.0000 C   0  0  0  0  0  0  0  0  0  0  0  0
   -3.9583    5.1814    0.0000 C   0  0  0  0  0  0  0  0  0  0  0  0
   -4.4218    3.7548    0.0000 C   0  0  0  0  0  0  0  0  0  0  0  0
   -5.8891    3.4430    0.0000 C   0  0  0  0  0  0  0  0  0  0  0  0
   -6.8928    4.5577    0.0000 C   0  0  0  0  0  0  0  0  0  0  0  0
   -8.3600    4.2458    0.0000 C   0  0  0  0  0  0  0  0  0  0  0  0
   -8.8235    2.8192    0.0000 C   0  0  0  0  0  0  0  0  0  0  0  0
   -7.8198    1.7045    0.0000 C   0  0  0  0  0  0  0  0  0  0  0  0
   -6.3526    2.0164    0.0000 C   0  0  0  0  0  0  0  0  0  0  0  0
   -0.7500    1.2990    0.0000 C   0  0  0  0  0  0  0  0  0  0  0  0
    0.7500    1.2990    0.0000 C   0  0  0  0  0  0  0  0  0  0  0  0
  1  2  1  0
  2  3  2  0
  3  4  1  0
  4  5  2  0
  5  6  1  0
  6  7  2  0
  7  8  1  0
  8  9  2  0
  9 10  1  0
 10 11  1  0
 11 12  2  0
 12 13  1  0
 13 14  2  0
 14 15  1  0
 15 16  2  0
 16 17  1  0
 17 18  2  0
 18 19  1  0
 19 20  1  0
 20 21  2  0
 21 22  1  0
 22 23  2  0
 23 24  1  0
 24 25  2  0
 14 26  1  0
 26 27  2  0
 27 28  1  0
 28 29  2  0
 29 30  1  0
 30 31  2  0
 31 32  1  0
 32 33  2  0
  5 34  1  0
 34 35  2  0
 35  2  1  0
 10  6  1  0
 27 11  1  0
 33 28  1  0
 19 15  1  0
 25 20  1  0
M  END
>  <Title>  (679) 
idABACgen7

$$$$

     RDKit          2D

 18 18  0  0  0  0  0  0  0  0999 V2000
    5.4271   -5.1962    0.0000 C   0  0  0  0  0  0  0  0  0  0  0  0
    4.6771   -3.8971    0.0000 C   0  0  0  0  0  0  0  0  0  0  0  0
    3.1771   -3.8971    0.0000 C   0  0  0  0  0  0  0  0  0  0  0  0
    5.4271   -2.5981    0.0000 C   0  0  0  0  0  0  0  0  0  0  0  0
    4.6771   -1.2990    0.0000 C   0  0  0  0  0  0  0  0  0  0  0  0
    5.9761   -0.5490    0.0000 C   0  0  0  0  0  0  0  0  0  0  0  0
    3.3780   -2.0490    0.0000 C   0  0  0  0  0  0  0  0  0  0  0  0
    3.9271    0.0000    0.0000 C   0  0  0  0  0  0  0  0  0  0  0  0
    2.4271    0.0000    0.0000 C   0  0  0  0  0  0  0  0  0  0  0  0
    1.9635   -1.4266    0.0000 C   0  0  0  0  0  0  0  0  0  0  0  0
    0.7500   -2.3083    0.0000 C   0  0  0  0  0  0  0  0  0  0  0  0
   -0.7500   -2.3083    0.0000 C   0  0  0  0  0  0  0  0  0  0  0  0
   -1.9635   -1.4266    0.0000 C   0  0  0  0  0  0  0  0  0  0  0  0
   -2.4271    0.0000    0.0000 C   0  0  0  0  0  0  0  0  0  0  0  0
   -1.9635    1.4266    0.0000 C   0  0  0  0  0  0  0  0  0  0  0  0
   -0.7500    2.3083    0.0000 C   0  0  0  0  0  0  0  0  0  0  0  0
    0.7500    2.3083    0.0000 C   0  0  0  0  0  0  0  0  0  0  0  0
    1.9635    1.4266    0.0000 C   0  0  0  0  0  0  0  0  0  0  0  0
  1  2  1  0
  2  3  1  0
  2  4  1  0
  4  5  1  0
  5  6  1  0
  5  7  1  0
  5  8  1  0
  8  9  1  0
  9 10  1  0
 10 11  1  0
 11 12  1  0
 12 13  1  0
 13 14  1  0
 14 15  1  0
 15 16  1  0
 16 17  1  0
 17 18  1  0
 18  9  1  0
M  END
>  <Title>  (680) 
idABADgen7

$$$$

     RDKit          2D

 59 67  0  0  0  0  0  0  0  0999 V2000
    3.0000    0.0000    0.0000 C   0  0  0  0  0  0  0  0  0  0  0  0
    1.5000    0.0000    0.0000 C   0  0  0  0  0  0  0  0  0  0  0  0
    0.7500   -1.2990    0.0000 C   0  0  0  0  0  0  0  0  0  0  0  0
   -0.7500   -1.2990    0.0000 C   0  0  0  0  0  0  0  0  0  0  0  0
   -1.5000    0.0000    0.0000 C   0  0  0  0  0  0  0  0  0  0  0  0
   -3.0000    0.0000    0.0000 C   0  0  0  0  0  0  0  0  0  0  0  0
   -3.7500   -1.2990    0.0000 O   0  0  0  0  0  0  0  0  0  0  0  0
   -3.7500    1.2990    0.0000 N   0  0  0  0  0  0  0  0  0  0  0  0
   -5.2500    1.2990    0.0000 C   0  0  0  0  0  0  0  0  0  0  0  0
   -6.1317    0.0855    0.0000 N   0  0  0  0  0  0  0  0  0  0  0  0
   -7.5583    0.5490    0.0000 N   0  0  0  0  0  0  0  0  0  0  0  0
   -7.5583    2.0490    0.0000 N   0  0  0  0  0  0  0  0  0  0  0  0
   -6.1317    2.5126    0.0000 N   0  0  0  0  0  0  0  0  0  0  0  0
   -5.6682    3.9391    0.0000 C   0  0  0  0  0  0  0  0  0  0  0  0
   -4.2009    4.2510    0.0000 C   0  0  0  0  0  0  0  0  0  0  0  0
   -3.7374    5.6776    0.0000 C   0  0  0  0  0  0  0  0  0  0  0  0
   -4.7411    6.7923    0.0000 C   0  0  0  0  0  0  0  0  0  0  0  0
   -4.2776    8.2189    0.0000 C   0  0  0  0  0  0  0  0  0  0  0  0
   -2.8104    8.5308    0.0000 C   0  0  0  0  0  0  0  0  0  0  0  0
   -2.3468    9.9574    0.0000 C   0  0  0  0  0  0  0  0  0  0  0  0
   -3.3505   11.0721    0.0000 C   0  0  0  0  0  0  0  0  0  0  0  0
   -2.8870   12.4987    0.0000 C   0  0  0  0  0  0  0  0  0  0  0  0
   -1.4198   12.8105    0.0000 C   0  0  0  0  0  0  0  0  0  0  0  0
   -0.9563   14.2371    0.0000 C   0  0  0  0  0  0  0  0  0  0  0  0
   -1.9599   15.3518    0.0000 C   0  0  0  0  0  0  0  0  0  0  0  0
   -3.4272   15.0400    0.0000 C   0  0  0  0  0  0  0  0  0  0  0  0
   -3.8907   13.6134    0.0000 C   0  0  0  0  0  0  0  0  0  0  0  0
   -4.8177   10.7602    0.0000 C   0  0  0  0  0  0  0  0  0  0  0  0
   -5.2813    9.3336    0.0000 C   0  0  0  0  0  0  0  0  0  0  0  0
   -6.7485    9.0218    0.0000 C   0  0  0  0  0  0  0  0  0  0  0  0
   -7.7522   10.1365    0.0000 C   0  0  0  0  0  0  0  0  0  0  0  0
   -9.2194    9.8246    0.0000 C   0  0  0  0  0  0  0  0  0  0  0  0
   -9.6829    8.3980    0.0000 C   0  0  0  0  0  0  0  0  0  0  0  0
   -8.6792    7.2833    0.0000 C   0  0  0  0  0  0  0  0  0  0  0  0
   -7.2120    7.5952    0.0000 C   0  0  0  0  0  0  0  0  0  0  0  0
   -6.2083    6.4805    0.0000 C   0  0  0  0  0  0  0  0  0  0  0  0
   -6.6718    5.0539    0.0000 C   0  0  0  0  0  0  0  0  0  0  0  0
   -8.1391    4.7420    0.0000 C   0  0  0  0  0  0  0  0  0  0  0  0
   -9.1428    5.8567    0.0000 C   0  0  0  0  0  0  0  0  0  0  0  0
  -10.6100    5.5448    0.0000 C   0  0  0  0  0  0  0  0  0  0  0  0
  -11.0735    4.1183    0.0000 C   0  0  0  0  0  0  0  0  0  0  0  0
  -12.5407    3.8064    0.0000 C   0  0  0  0  0  0  0  0  0  0  0  0
  -13.0043    2.3798    0.0000 O   0  0  0  0  0  0  0  0  0  0  0  0
  -13.5444    4.9211    0.0000 N   0  0  0  0  0  0  0  0  0  0  0  0
  -15.0117    4.6092    0.0000 C   0  0  0  0  0  0  0  0  0  0  0  0
  -15.6218    3.2389    0.0000 N   0  0  0  0  0  0  0  0  0  0  0  0
  -17.1135    3.3957    0.0000 C   0  0  0  0  0  0  0  0  0  0  0  0
  -17.4254    4.8629    0.0000 N   0  0  0  0  0  0  0  0  0  0  0  0
  -16.1264    5.6129    0.0000 N   0  0  0  0  0  0  0  0  0  0  0  0
  -15.9696    7.1047    0.0000 C   0  0  0  0  0  0  0  0  0  0  0  0
  -14.5993    7.7148    0.0000 C   0  0  0  0  0  0  0  0  0  0  0  0
  -14.4425    9.2066    0.0000 C   0  0  0  0  0  0  0  0  0  0  0  0
  -15.6560   10.0883    0.0000 C   0  0  0  0  0  0  0  0  0  0  0  0
  -17.0263    9.4782    0.0000 C   0  0  0  0  0  0  0  0  0  0  0  0
  -17.1831    7.9864    0.0000 C   0  0  0  0  0  0  0  0  0  0  0  0
  -10.0698    3.0035    0.0000 C   0  0  0  0  0  0  0  0  0  0  0  0
   -8.6026    3.3154    0.0000 C   0  0  0  0  0  0  0  0  0  0  0  0
   -0.7500    1.2990    0.0000 C   0  0  0  0  0  0  0  0  0  0  0  0
    0.7500    1.2990    0.0000 C   0  0  0  0  0  0  0  0  0  0  0  0
  1  2  1  0
  2  3  2  0
  3  4  1  0
  4  5  2  0
  5  6  1  0
  6  7  2  0
  6  8  1  0
  8  9  1  0
  9 10  2  0
 10 11  1  0
 11 12  2  0
 12 13  1  0
 13 14  1  0
 14 15  2  0
 15 16  1  0
 16 17  2  0
 17 18  1  0
 18 19  2  0
 19 20  1  0
 20 21  2  0
 21 22  1  0
 22 23  2  0
 23 24  1  0
 24 25  2  0
 25 26  1  0
 26 27  2  0
 21 28  1  0
 28 29  2  0
 29 30  1  0
 30 31  2  0
 31 32  1  0
 32 33  2  0
 33 34  1  0
 34 35  2  0
 17 36  1  0
 36 37  2  0
 37 38  1  0
 38 39  2  0
 39 40  1  0
 40 41  2  0
 41 42  1  0
 42 43  2  0
 42 44  1  0
 44 45  1  0
 45 46  2  0
 46 47  1  0
 47 48  2  0
 48 49  1  0
 49 50  1  0
 50 51  2  0
 51 52  1  0
 52 53  2  0
 53 54  1  0
 54 55  2  0
 41 56  1  0
 56 57  2  0
  5 58  1  0
 58 59  2  0
 59  2  1  0
 13  9  1  0
 37 14  1  0
 57 38  1  0
 29 18  1  0
 35 30  1  0
 49 45  1  0
 55 50  1  0
 27 22  1  0
M  END
>  <Title>  (681) 
idABAEgen7

$$$$

     RDKit          2D

 32 36  0  0  0  0  0  0  0  0999 V2000
    3.7500   -1.2990    0.0000 C   0  0  0  0  0  0  0  0  0  0  0  0
    3.0000    0.0000    0.0000 O   0  0  0  0  0  0  0  0  0  0  0  0
    1.5000    0.0000    0.0000 C   0  0  0  0  0  0  0  0  0  0  0  0
    0.7500   -1.2990    0.0000 C   0  0  0  0  0  0  0  0  0  0  0  0
   -0.7500   -1.2990    0.0000 C   0  0  0  0  0  0  0  0  0  0  0  0
   -1.5000    0.0000    0.0000 C   0  0  0  0  0  0  0  0  0  0  0  0
   -3.0000    0.0000    0.0000 N   0  0  0  0  0  0  0  0  0  0  0  0
   -3.7500    1.2990    0.0000 N   0  0  0  0  0  0  0  0  0  0  0  0
   -5.2500    1.2990    0.0000 N   0  0  0  0  0  0  0  0  0  0  0  0
   -6.0000    0.0000    0.0000 N   0  0  0  0  0  0  0  0  0  0  0  0
   -5.2500   -1.2990    0.0000 N   0  0  0  0  0  0  0  0  0  0  0  0
   -3.7500   -1.2990    0.0000 N   0  0  0  0  0  0  0  0  0  0  0  0
   -3.0000   -2.5981    0.0000 C   0  0  0  0  0  0  0  0  0  0  0  0
   -3.7500   -3.8971    0.0000 C   0  0  0  0  0  0  0  0  0  0  0  0
   -3.0000   -5.1962    0.0000 C   0  0  0  0  0  0  0  0  0  0  0  0
   -1.5000   -5.1962    0.0000 C   0  0  0  0  0  0  0  0  0  0  0  0
   -0.7500   -6.4952    0.0000 C   0  0  0  0  0  0  0  0  0  0  0  0
    0.7418   -6.6520    0.0000 N   0  0  0  0  0  0  0  0  0  0  0  0
    1.0537   -8.1192    0.0000 N   0  0  0  0  0  0  0  0  0  0  0  0
   -0.2454   -8.8692    0.0000 N   0  0  0  0  0  0  0  0  0  0  0  0
   -1.3601   -7.8655    0.0000 N   0  0  0  0  0  0  0  0  0  0  0  0
   -2.8273   -8.1774    0.0000 C   0  0  0  0  0  0  0  0  0  0  0  0
   -3.8310   -7.0627    0.0000 C   0  0  0  0  0  0  0  0  0  0  0  0
   -5.2982   -7.3745    0.0000 C   0  0  0  0  0  0  0  0  0  0  0  0
   -5.7618   -8.8011    0.0000 C   0  0  0  0  0  0  0  0  0  0  0  0
   -4.7581   -9.9158    0.0000 C   0  0  0  0  0  0  0  0  0  0  0  0
   -3.2909   -9.6040    0.0000 C   0  0  0  0  0  0  0  0  0  0  0  0
   -0.7500   -3.8971    0.0000 C   0  0  0  0  0  0  0  0  0  0  0  0
   -1.5000   -2.5981    0.0000 C   0  0  0  0  0  0  0  0  0  0  0  0
   -0.7500    1.2990    0.0000 C   0  0  0  0  0  0  0  0  0  0  0  0
   -1.5000    2.5981    0.0000 O   0  0  0  0  0  0  0  0  0  0  0  0
    0.7500    1.2990    0.0000 N   0  0  0  0  0  0  0  0  0  0  0  0
  1  2  1  0
  2  3  1  0
  3  4  2  0
  4  5  1  0
  5  6  2  0
  6  7  1  0
  7  8  1  0
  8  9  2  0
  9 10  1  0
 10 11  2  0
 11 12  1  0
 12 13  1  0
 13 14  2  0
 14 15  1  0
 15 16  2  0
 16 17  1  0
 17 18  2  0
 18 19  1  0
 19 20  2  0
 20 21  1  0
 21 22  1  0
 22 23  2  0
 23 24  1  0
 24 25  2  0
 25 26  1  0
 26 27  2  0
 16 28  1  0
 28 29  2  0
  6 30  1  0
 30 31  2  0
 30 32  1  0
 32  3  1  0
 12  7  1  0
 29 13  1  0
 21 17  1  0
 27 22  1  0
M  END
>  <Title>  (682) 
idABAFgen7

$$$$

     RDKit          2D

 28 31  0  0  0  0  0  0  0  0999 V2000
    8.1207   -4.4546    0.0000 C   0  0  0  0  0  0  0  0  0  0  0  0
    7.1170   -5.5693    0.0000 C   0  0  0  0  0  0  0  0  0  0  0  0
    5.6252   -5.4126    0.0000 C   0  0  0  0  0  0  0  0  0  0  0  0
    5.0151   -6.7829    0.0000 C   0  0  0  0  0  0  0  0  0  0  0  0
    6.1298   -7.7866    0.0000 C   0  0  0  0  0  0  0  0  0  0  0  0
    5.9730   -9.2783    0.0000 C   0  0  0  0  0  0  0  0  0  0  0  0
    7.0877  -10.2820    0.0000 N   0  0  0  0  0  0  0  0  0  0  0  0
    6.4776  -11.6524    0.0000 N   0  0  0  0  0  0  0  0  0  0  0  0
    4.9858  -11.4956    0.0000 N   0  0  0  0  0  0  0  0  0  0  0  0
    4.6740  -10.0283    0.0000 N   0  0  0  0  0  0  0  0  0  0  0  0
    3.3037   -9.4182    0.0000 C   0  0  0  0  0  0  0  0  0  0  0  0
    2.0046  -10.1682    0.0000 C   0  0  0  0  0  0  0  0  0  0  0  0
    0.8899   -9.1645    0.0000 C   0  0  0  0  0  0  0  0  0  0  0  0
    1.5000   -7.7942    0.0000 C   0  0  0  0  0  0  0  0  0  0  0  0
    0.7500   -6.4952    0.0000 C   0  0  0  0  0  0  0  0  0  0  0  0
   -0.7500   -6.4952    0.0000 O   0  0  0  0  0  0  0  0  0  0  0  0
    1.5000   -5.1962    0.0000 N   0  0  0  0  0  0  0  0  0  0  0  0
    0.7500   -3.8971    0.0000 O   0  0  0  0  0  0  0  0  0  0  0  0
    1.5000   -2.5981    0.0000 C   0  0  0  0  0  0  0  0  0  0  0  0
    0.7500   -1.2990    0.0000 C   0  0  0  0  0  0  0  0  0  0  0  0
    1.5000    0.0000    0.0000 C   0  0  0  0  0  0  0  0  0  0  0  0
    0.7500    1.2990    0.0000 C   0  0  0  0  0  0  0  0  0  0  0  0
   -0.7500    1.2990    0.0000 C   0  0  0  0  0  0  0  0  0  0  0  0
   -1.5000    0.0000    0.0000 C   0  0  0  0  0  0  0  0  0  0  0  0
   -0.7500   -1.2990    0.0000 C   0  0  0  0  0  0  0  0  0  0  0  0
    2.9918   -7.9510    0.0000 C   0  0  0  0  0  0  0  0  0  0  0  0
    3.9955   -6.8363    0.0000 O   0  0  0  0  0  0  0  0  0  0  0  0
    7.4288   -7.0366    0.0000 C   0  0  0  0  0  0  0  0  0  0  0  0
  1  2  1  0
  2  3  2  0
  3  4  1  0
  4  5  2  0
  5  6  1  0
  6  7  2  0
  7  8  1  0
  8  9  2  0
  9 10  1  0
 10 11  1  0
 11 12  2  0
 12 13  1  0
 13 14  2  0
 14 15  1  0
 15 16  2  0
 15 17  1  0
 17 18  1  0
 18 19  1  0
 19 20  1  0
 20 21  2  0
 21 22  1  0
 22 23  2  0
 23 24  1  0
 24 25  2  0
 14 26  1  0
 26 27  2  0
  5 28  1  0
 28  2  1  0
 10  6  1  0
 26 11  1  0
 25 20  1  0
M  END
>  <Title>  (683) 
idABAGgen7

$$$$

     RDKit          2D

 14 14  0  0  0  0  0  0  0  0999 V2000
    5.2500   -1.2990    0.0000 C   0  0  0  0  0  0  0  0  0  0  0  0
    3.7500   -1.2990    0.0000 C   0  0  0  0  0  0  0  0  0  0  0  0
    3.0000    0.0000    0.0000 C   0  0  0  0  0  0  0  0  0  0  0  0
    1.5000    0.0000    0.0000 C   0  0  0  0  0  0  0  0  0  0  0  0
    0.7500   -1.2990    0.0000 C   0  0  0  0  0  0  0  0  0  0  0  0
   -0.7500   -1.2990    0.0000 C   0  0  0  0  0  0  0  0  0  0  0  0
   -1.5000    0.0000    0.0000 C   0  0  0  0  0  0  0  0  0  0  0  0
   -0.7500    1.2990    0.0000 C   0  0  0  0  0  0  0  0  0  0  0  0
    0.7500    1.2990    0.0000 C   0  0  0  0  0  0  0  0  0  0  0  0
    3.0000   -2.5981    0.0000 C   0  0  0  0  0  0  0  0  0  0  0  0
    3.7500   -3.8971    0.0000 C   0  0  0  0  0  0  0  0  0  0  0  0
    2.4510   -4.6471    0.0000 C   0  0  0  0  0  0  0  0  0  0  0  0
    5.0490   -3.1471    0.0000 C   0  0  0  0  0  0  0  0  0  0  0  0
    4.5000   -5.1962    0.0000 C   0  0  0  0  0  0  0  0  0  0  0  0
  1  2  1  0
  2  3  1  0
  3  4  1  0
  4  5  2  0
  5  6  1  0
  6  7  2  0
  7  8  1  0
  8  9  2  0
  2 10  1  0
 10 11  1  0
 11 12  1  0
 11 13  1  0
 11 14  1  0
  9  4  1  0
M  END
>  <Title>  (684) 
idABAHgen7

$$$$

     RDKit          2D

 25 28  0  0  0  0  0  0  0  0999 V2000
    3.0000    0.0000    0.0000 C   0  0  0  0  0  0  0  0  0  0  0  0
    1.5000    0.0000    0.0000 C   0  0  0  0  0  0  0  0  0  0  0  0
    0.7500   -1.2990    0.0000 C   0  0  0  0  0  0  0  0  0  0  0  0
   -0.7500   -1.2990    0.0000 C   0  0  0  0  0  0  0  0  0  0  0  0
   -1.5000    0.0000    0.0000 C   0  0  0  0  0  0  0  0  0  0  0  0
   -3.0000    0.0000    0.0000 C   0  0  0  0  0  0  0  0  0  0  0  0
   -3.7500    1.2990    0.0000 C   0  0  0  0  0  0  0  0  0  0  0  0
   -5.2500    1.2990    0.0000 C   0  0  0  0  0  0  0  0  0  0  0  0
   -6.0000    0.0000    0.0000 C   0  0  0  0  0  0  0  0  0  0  0  0
   -7.5000    0.0000    0.0000 C   0  0  0  0  0  0  0  0  0  0  0  0
   -8.3817   -1.2135    0.0000 N   0  0  0  0  0  0  0  0  0  0  0  0
   -9.8083   -0.7500    0.0000 N   0  0  0  0  0  0  0  0  0  0  0  0
   -9.8083    0.7500    0.0000 N   0  0  0  0  0  0  0  0  0  0  0  0
   -8.3817    1.2135    0.0000 N   0  0  0  0  0  0  0  0  0  0  0  0
   -7.9182    2.6401    0.0000 C   0  0  0  0  0  0  0  0  0  0  0  0
   -6.4509    2.9520    0.0000 C   0  0  0  0  0  0  0  0  0  0  0  0
   -5.9874    4.3786    0.0000 C   0  0  0  0  0  0  0  0  0  0  0  0
   -6.9911    5.4933    0.0000 C   0  0  0  0  0  0  0  0  0  0  0  0
   -8.4583    5.1814    0.0000 C   0  0  0  0  0  0  0  0  0  0  0  0
   -8.9218    3.7548    0.0000 C   0  0  0  0  0  0  0  0  0  0  0  0
   -5.2500   -1.2990    0.0000 C   0  0  0  0  0  0  0  0  0  0  0  0
   -3.7500   -1.2990    0.0000 C   0  0  0  0  0  0  0  0  0  0  0  0
   -0.7500    1.2990    0.0000 C   0  0  0  0  0  0  0  0  0  0  0  0
   -1.5000    2.5981    0.0000 O   0  0  0  0  0  0  0  0  0  0  0  0
    0.7500    1.2990    0.0000 N   0  0  0  0  0  0  0  0  0  0  0  0
  1  2  1  0
  2  3  2  0
  3  4  1  0
  4  5  2  0
  5  6  1  0
  6  7  2  0
  7  8  1  0
  8  9  2  0
  9 10  1  0
 10 11  2  0
 11 12  1  0
 12 13  2  0
 13 14  1  0
 14 15  1  0
 15 16  2  0
 16 17  1  0
 17 18  2  0
 18 19  1  0
 19 20  2  0
  9 21  1  0
 21 22  2  0
  5 23  1  0
 23 24  2  0
 23 25  1  0
 25  2  1  0
 22  6  1  0
 14 10  1  0
 20 15  1  0
M  END
>  <Title>  (685) 
idABAIgen7

$$$$

     RDKit          2D

 53 61  0  0  0  0  0  0  0  0999 V2000
    3.7500   -1.2990    0.0000 C   0  0  0  0  0  0  0  0  0  0  0  0
    3.0000    0.0000    0.0000 O   0  0  0  0  0  0  0  0  0  0  0  0
    1.5000    0.0000    0.0000 C   0  0  0  0  0  0  0  0  0  0  0  0
    0.7500   -1.2990    0.0000 C   0  0  0  0  0  0  0  0  0  0  0  0
   -0.7500   -1.2990    0.0000 C   0  0  0  0  0  0  0  0  0  0  0  0
   -1.5000    0.0000    0.0000 C   0  0  0  0  0  0  0  0  0  0  0  0
   -3.0000    0.0000    0.0000 C   0  0  0  0  0  0  0  0  0  0  0  0
   -3.8817   -1.2135    0.0000 N   0  0  0  0  0  0  0  0  0  0  0  0
   -5.3083   -0.7500    0.0000 N   0  0  0  0  0  0  0  0  0  0  0  0
   -5.3083    0.7500    0.0000 N   0  0  0  0  0  0  0  0  0  0  0  0
   -3.8817    1.2135    0.0000 N   0  0  0  0  0  0  0  0  0  0  0  0
   -3.4182    2.6401    0.0000 C   0  0  0  0  0  0  0  0  0  0  0  0
   -1.9509    2.9520    0.0000 C   0  0  0  0  0  0  0  0  0  0  0  0
   -1.4874    4.3786    0.0000 C   0  0  0  0  0  0  0  0  0  0  0  0
   -2.4911    5.4933    0.0000 C   0  0  0  0  0  0  0  0  0  0  0  0
   -2.0276    6.9199    0.0000 C   0  0  0  0  0  0  0  0  0  0  0  0
   -2.9093    8.1334    0.0000 N   0  0  0  0  0  0  0  0  0  0  0  0
   -2.0276    9.3469    0.0000 N   0  0  0  0  0  0  0  0  0  0  0  0
   -0.6010    8.8834    0.0000 N   0  0  0  0  0  0  0  0  0  0  0  0
   -0.6010    7.3834    0.0000 N   0  0  0  0  0  0  0  0  0  0  0  0
    0.6125    6.5017    0.0000 C   0  0  0  0  0  0  0  0  0  0  0  0
    0.6125    5.0017    0.0000 N   0  0  0  0  0  0  0  0  0  0  0  0
    2.0391    4.5382    0.0000 N   0  0  0  0  0  0  0  0  0  0  0  0
    2.9208    5.7517    0.0000 N   0  0  0  0  0  0  0  0  0  0  0  0
    2.0391    6.9652    0.0000 N   0  0  0  0  0  0  0  0  0  0  0  0
    2.5026    8.3918    0.0000 C   0  0  0  0  0  0  0  0  0  0  0  0
    3.9699    8.7037    0.0000 C   0  0  0  0  0  0  0  0  0  0  0  0
    4.4334   10.1303    0.0000 C   0  0  0  0  0  0  0  0  0  0  0  0
    3.4297   11.2450    0.0000 C   0  0  0  0  0  0  0  0  0  0  0  0
    1.9625   10.9331    0.0000 C   0  0  0  0  0  0  0  0  0  0  0  0
    1.4989    9.5065    0.0000 C   0  0  0  0  0  0  0  0  0  0  0  0
   -3.9583    5.1814    0.0000 C   0  0  0  0  0  0  0  0  0  0  0  0
   -4.4218    3.7548    0.0000 C   0  0  0  0  0  0  0  0  0  0  0  0
   -5.8891    3.4430    0.0000 C   0  0  0  0  0  0  0  0  0  0  0  0
   -6.4992    2.0726    0.0000 C   0  0  0  0  0  0  0  0  0  0  0  0
   -7.9910    2.2294    0.0000 C   0  0  0  0  0  0  0  0  0  0  0  0
   -8.3028    3.6967    0.0000 C   0  0  0  0  0  0  0  0  0  0  0  0
   -9.6731    4.3068    0.0000 C   0  0  0  0  0  0  0  0  0  0  0  0
  -10.9722    3.5568    0.0000 N   0  0  0  0  0  0  0  0  0  0  0  0
  -12.0869    4.5605    0.0000 N   0  0  0  0  0  0  0  0  0  0  0  0
  -11.4768    5.9308    0.0000 N   0  0  0  0  0  0  0  0  0  0  0  0
   -9.9850    5.7740    0.0000 N   0  0  0  0  0  0  0  0  0  0  0  0
   -8.9813    6.8887    0.0000 C   0  0  0  0  0  0  0  0  0  0  0  0
   -7.5141    6.5768    0.0000 C   0  0  0  0  0  0  0  0  0  0  0  0
   -6.5104    7.6915    0.0000 C   0  0  0  0  0  0  0  0  0  0  0  0
   -6.9739    9.1181    0.0000 C   0  0  0  0  0  0  0  0  0  0  0  0
   -8.4411    9.4300    0.0000 C   0  0  0  0  0  0  0  0  0  0  0  0
   -9.4448    8.3153    0.0000 C   0  0  0  0  0  0  0  0  0  0  0  0
   -7.0038    4.4467    0.0000 C   0  0  0  0  0  0  0  0  0  0  0  0
   -6.8470    5.9384    0.0000 O   0  0  0  0  0  0  0  0  0  0  0  0
   -0.7500    1.2990    0.0000 N   0  0  0  0  0  0  0  0  0  0  0  0
    0.7500    1.2990    0.0000 C   0  0  0  0  0  0  0  0  0  0  0  0
    1.5000    2.5981    0.0000 O   0  0  0  0  0  0  0  0  0  0  0  0
  1  2  1  0
  2  3  1  0
  3  4  2  0
  4  5  1  0
  5  6  2  0
  6  7  1  0
  7  8  2  0
  8  9  1  0
  9 10  2  0
 10 11  1  0
 11 12  1  0
 12 13  2  0
 13 14  1  0
 14 15  2  0
 15 16  1  0
 16 17  2  0
 17 18  1  0
 18 19  2  0
 19 20  1  0
 20 21  1  0
 21 22  2  0
 22 23  1  0
 23 24  2  0
 24 25  1  0
 25 26  1  0
 26 27  2  0
 27 28  1  0
 28 29  2  0
 29 30  1  0
 30 31  2  0
 15 32  1  0
 32 33  2  0
 33 34  1  0
 34 35  2  0
 35 36  1  0
 36 37  2  0
 37 38  1  0
 38 39  2  0
 39 40  1  0
 40 41  2  0
 41 42  1  0
 42 43  1  0
 43 44  2  0
 44 45  1  0
 45 46  2  0
 46 47  1  0
 47 48  2  0
 37 49  1  0
 49 50  2  0
  6 51  1  0
 51 52  1  0
 52 53  2  0
 52  3  1  0
 11  7  1  0
 33 12  1  0
 49 34  1  0
 20 16  1  0
 25 21  1  0
 31 26  1  0
 42 38  1  0
 48 43  1  0
M  END
>  <Title>  (686) 
idABAJgen7

$$$$

     RDKit          2D

 24 27  0  0  0  0  0  0  0  0999 V2000
    3.0000    0.0000    0.0000 C   0  0  0  0  0  0  0  0  0  0  0  0
    1.5000    0.0000    0.0000 C   0  0  0  0  0  0  0  0  0  0  0  0
    0.7500   -1.2990    0.0000 C   0  0  0  0  0  0  0  0  0  0  0  0
   -0.7500   -1.2990    0.0000 C   0  0  0  0  0  0  0  0  0  0  0  0
   -1.5000    0.0000    0.0000 C   0  0  0  0  0  0  0  0  0  0  0  0
   -3.0000    0.0000    0.0000 C   0  0  0  0  0  0  0  0  0  0  0  0
   -3.8817   -1.2135    0.0000 N   0  0  0  0  0  0  0  0  0  0  0  0
   -5.3083   -0.7500    0.0000 N   0  0  0  0  0  0  0  0  0  0  0  0
   -5.3083    0.7500    0.0000 N   0  0  0  0  0  0  0  0  0  0  0  0
   -3.8817    1.2135    0.0000 N   0  0  0  0  0  0  0  0  0  0  0  0
   -3.4182    2.6401    0.0000 C   0  0  0  0  0  0  0  0  0  0  0  0
   -1.9509    2.9520    0.0000 C   0  0  0  0  0  0  0  0  0  0  0  0
   -1.4874    4.3786    0.0000 C   0  0  0  0  0  0  0  0  0  0  0  0
   -2.4911    5.4933    0.0000 C   0  0  0  0  0  0  0  0  0  0  0  0
   -2.0276    6.9199    0.0000 C   0  0  0  0  0  0  0  0  0  0  0  0
   -0.5604    7.2317    0.0000 C   0  0  0  0  0  0  0  0  0  0  0  0
   -0.0968    8.6583    0.0000 C   0  0  0  0  0  0  0  0  0  0  0  0
   -1.1005    9.7730    0.0000 C   0  0  0  0  0  0  0  0  0  0  0  0
   -2.5677    9.4612    0.0000 C   0  0  0  0  0  0  0  0  0  0  0  0
   -3.0313    8.0346    0.0000 C   0  0  0  0  0  0  0  0  0  0  0  0
   -3.9583    5.1814    0.0000 C   0  0  0  0  0  0  0  0  0  0  0  0
   -4.4218    3.7548    0.0000 C   0  0  0  0  0  0  0  0  0  0  0  0
   -0.7500    1.2990    0.0000 N   0  0  0  0  0  0  0  0  0  0  0  0
    0.7500    1.2990    0.0000 N   0  0  0  0  0  0  0  0  0  0  0  0
  1  2  1  0
  2  3  2  0
  3  4  1  0
  4  5  2  0
  5  6  1  0
  6  7  2  0
  7  8  1  0
  8  9  2  0
  9 10  1  0
 10 11  1  0
 11 12  2  0
 12 13  1  0
 13 14  2  0
 14 15  1  0
 15 16  2  0
 16 17  1  0
 17 18  2  0
 18 19  1  0
 19 20  2  0
 14 21  1  0
 21 22  2  0
  5 23  1  0
 23 24  2  0
 24  2  1  0
 10  6  1  0
 22 11  1  0
 20 15  1  0
M  END
>  <Title>  (687) 
idABAKgen7

$$$$

     RDKit          2D

 14 15  0  0  0  0  0  0  0  0999 V2000
    2.8449    6.6264    0.0000 C   0  0  0  0  0  0  0  0  0  0  0  0
    1.4115    6.1843    0.0000 O   0  0  0  0  0  0  0  0  0  0  0  0
    1.0777    4.7219    0.0000 C   0  0  0  0  0  0  0  0  0  0  0  0
    2.2505    3.7867    0.0000 C   0  0  0  0  0  0  0  0  0  0  0  0
    2.2505    2.2867    0.0000 C   0  0  0  0  0  0  0  0  0  0  0  0
    1.0777    1.3515    0.0000 C   0  0  0  0  0  0  0  0  0  0  0  0
    1.7286    0.0000    0.0000 C   0  0  0  0  0  0  0  0  0  0  0  0
    1.0777   -1.3515    0.0000 C   0  0  0  0  0  0  0  0  0  0  0  0
   -0.3846   -1.6852    0.0000 C   0  0  0  0  0  0  0  0  0  0  0  0
   -1.5574   -0.7500    0.0000 C   0  0  0  0  0  0  0  0  0  0  0  0
   -1.5574    0.7500    0.0000 C   0  0  0  0  0  0  0  0  0  0  0  0
   -0.3846    1.6852    0.0000 C   0  0  0  0  0  0  0  0  0  0  0  0
   -1.0355    3.0367    0.0000 C   0  0  0  0  0  0  0  0  0  0  0  0
   -0.3846    4.3881    0.0000 C   0  0  0  0  0  0  0  0  0  0  0  0
  1  2  1  0
  2  3  1  0
  3  4  2  0
  4  5  1  0
  5  6  2  0
  6  7  1  0
  7  8  2  0
  8  9  1  0
  9 10  2  0
 10 11  1  0
 11 12  2  0
 12 13  1  0
 13 14  2  0
 14  3  1  0
 12  6  1  0
M  END
>  <Title>  (688) 
idABALgen7

$$$$

     RDKit          2D

 33 37  0  0  0  0  0  0  0  0999 V2000
    3.7500   -1.2990    0.0000 C   0  0  0  0  0  0  0  0  0  0  0  0
    3.0000    0.0000    0.0000 O   0  0  0  0  0  0  0  0  0  0  0  0
    1.5000    0.0000    0.0000 C   0  0  0  0  0  0  0  0  0  0  0  0
    0.7500   -1.2990    0.0000 C   0  0  0  0  0  0  0  0  0  0  0  0
   -0.7500   -1.2990    0.0000 C   0  0  0  0  0  0  0  0  0  0  0  0
   -1.5000    0.0000    0.0000 C   0  0  0  0  0  0  0  0  0  0  0  0
   -3.0000    0.0000    0.0000 C   0  0  0  0  0  0  0  0  0  0  0  0
   -3.8817   -1.2135    0.0000 C   0  0  0  0  0  0  0  0  0  0  0  0
   -5.3083   -0.7500    0.0000 N   0  0  0  0  0  0  0  0  0  0  0  0
   -5.3083    0.7500    0.0000 N   0  0  0  0  0  0  0  0  0  0  0  0
   -3.8817    1.2135    0.0000 N   0  0  0  0  0  0  0  0  0  0  0  0
   -3.4182    2.6401    0.0000 C   0  0  0  0  0  0  0  0  0  0  0  0
   -1.9509    2.9520    0.0000 C   0  0  0  0  0  0  0  0  0  0  0  0
   -1.4874    4.3786    0.0000 C   0  0  0  0  0  0  0  0  0  0  0  0
   -2.4911    5.4933    0.0000 C   0  0  0  0  0  0  0  0  0  0  0  0
   -2.0276    6.9199    0.0000 C   0  0  0  0  0  0  0  0  0  0  0  0
   -3.0313    8.0346    0.0000 O   0  0  0  0  0  0  0  0  0  0  0  0
   -0.5604    7.2317    0.0000 N   0  0  0  0  0  0  0  0  0  0  0  0
   -0.0968    8.6583    0.0000 C   0  0  0  0  0  0  0  0  0  0  0  0
   -0.9785    9.8718    0.0000 N   0  0  0  0  0  0  0  0  0  0  0  0
   -0.0968   11.0854    0.0000 N   0  0  0  0  0  0  0  0  0  0  0  0
    1.3298   10.6218    0.0000 N   0  0  0  0  0  0  0  0  0  0  0  0
    1.3298    9.1218    0.0000 N   0  0  0  0  0  0  0  0  0  0  0  0
    2.5433    8.2402    0.0000 C   0  0  0  0  0  0  0  0  0  0  0  0
    2.3865    6.7484    0.0000 C   0  0  0  0  0  0  0  0  0  0  0  0
    3.6000    5.8667    0.0000 C   0  0  0  0  0  0  0  0  0  0  0  0
    4.9703    6.4768    0.0000 C   0  0  0  0  0  0  0  0  0  0  0  0
    5.1271    7.9686    0.0000 C   0  0  0  0  0  0  0  0  0  0  0  0
    3.9136    8.8503    0.0000 C   0  0  0  0  0  0  0  0  0  0  0  0
   -3.9583    5.1814    0.0000 C   0  0  0  0  0  0  0  0  0  0  0  0
   -4.4218    3.7548    0.0000 C   0  0  0  0  0  0  0  0  0  0  0  0
   -0.7500    1.2990    0.0000 C   0  0  0  0  0  0  0  0  0  0  0  0
    0.7500    1.2990    0.0000 C   0  0  0  0  0  0  0  0  0  0  0  0
  1  2  1  0
  2  3  1  0
  3  4  2  0
  4  5  1  0
  5  6  2  0
  6  7  1  0
  7  8  2  0
  8  9  1  0
  9 10  2  0
 10 11  1  0
 11 12  1  0
 12 13  2  0
 13 14  1  0
 14 15  2  0
 15 16  1  0
 16 17  2  0
 16 18  1  0
 18 19  1  0
 19 20  2  0
 20 21  1  0
 21 22  2  0
 22 23  1  0
 23 24  1  0
 24 25  2  0
 25 26  1  0
 26 27  2  0
 27 28  1  0
 28 29  2  0
 15 30  1  0
 30 31  2  0
  6 32  1  0
 32 33  2  0
 33  3  1  0
 11  7  1  0
 31 12  1  0
 23 19  1  0
 29 24  1  0
M  END
>  <Title>  (689) 
idABAMgen7

$$$$

     RDKit          2D

  8  8  0  0  0  0  0  0  0  0999 V2000
    3.2286   -0.0000    0.0000 O   0  0  0  0  0  0  0  0  0  0  0  0
    1.7286    0.0000    0.0000 C   0  0  0  0  0  0  0  0  0  0  0  0
    1.0777    1.3515    0.0000 C   0  0  0  0  0  0  0  0  0  0  0  0
   -0.3846    1.6852    0.0000 C   0  0  0  0  0  0  0  0  0  0  0  0
   -1.5574    0.7500    0.0000 C   0  0  0  0  0  0  0  0  0  0  0  0
   -1.5574   -0.7500    0.0000 C   0  0  0  0  0  0  0  0  0  0  0  0
   -0.3846   -1.6852    0.0000 C   0  0  0  0  0  0  0  0  0  0  0  0
    1.0777   -1.3515    0.0000 C   0  0  0  0  0  0  0  0  0  0  0  0
  1  2  2  0
  2  3  1  0
  3  4  2  0
  4  5  1  0
  5  6  2  0
  6  7  1  0
  7  8  1  0
  8  2  1  0
M  END
>  <Title>  (690) 
idABANgen7

$$$$

     RDKit          2D

 27 30  0  0  0  0  0  0  0  0999 V2000
    3.0000    0.0000    0.0000 C   0  0  0  0  0  0  0  0  0  0  0  0
    1.5000    0.0000    0.0000 C   0  0  0  0  0  0  0  0  0  0  0  0
    0.7500   -1.2990    0.0000 C   0  0  0  0  0  0  0  0  0  0  0  0
   -0.7500   -1.2990    0.0000 C   0  0  0  0  0  0  0  0  0  0  0  0
   -1.5000    0.0000    0.0000 C   0  0  0  0  0  0  0  0  0  0  0  0
   -3.0000    0.0000    0.0000 C   0  0  0  0  0  0  0  0  0  0  0  0
   -3.7500   -1.2990    0.0000 O   0  0  0  0  0  0  0  0  0  0  0  0
   -3.7500    1.2990    0.0000 N   0  0  0  0  0  0  0  0  0  0  0  0
   -5.2500    1.2990    0.0000 C   0  0  0  0  0  0  0  0  0  0  0  0
   -6.1317    0.0855    0.0000 N   0  0  0  0  0  0  0  0  0  0  0  0
   -7.5583    0.5490    0.0000 N   0  0  0  0  0  0  0  0  0  0  0  0
   -7.5583    2.0490    0.0000 N   0  0  0  0  0  0  0  0  0  0  0  0
   -6.1317    2.5126    0.0000 N   0  0  0  0  0  0  0  0  0  0  0  0
   -5.6682    3.9391    0.0000 C   0  0  0  0  0  0  0  0  0  0  0  0
   -6.5498    5.1527    0.0000 C   0  0  0  0  0  0  0  0  0  0  0  0
   -5.6682    6.3662    0.0000 C   0  0  0  0  0  0  0  0  0  0  0  0
   -4.2416    5.9027    0.0000 C   0  0  0  0  0  0  0  0  0  0  0  0
   -3.0280    6.7844    0.0000 C   0  0  0  0  0  0  0  0  0  0  0  0
   -3.0280    8.2844    0.0000 N   0  0  0  0  0  0  0  0  0  0  0  0
   -1.6015    8.7479    0.0000 N   0  0  0  0  0  0  0  0  0  0  0  0
   -0.7198    7.5344    0.0000 N   0  0  0  0  0  0  0  0  0  0  0  0
   -1.6015    6.3208    0.0000 N   0  0  0  0  0  0  0  0  0  0  0  0
   -4.2416    4.4027    0.0000 C   0  0  0  0  0  0  0  0  0  0  0  0
   -3.0280    3.5210    0.0000 O   0  0  0  0  0  0  0  0  0  0  0  0
   -0.7500    1.2990    0.0000 C   0  0  0  0  0  0  0  0  0  0  0  0
   -1.5000    2.5981    0.0000 O   0  0  0  0  0  0  0  0  0  0  0  0
    0.7500    1.2990    0.0000 N   0  0  0  0  0  0  0  0  0  0  0  0
  1  2  1  0
  2  3  2  0
  3  4  1  0
  4  5  2  0
  5  6  1  0
  6  7  2  0
  6  8  1  0
  8  9  1  0
  9 10  2  0
 10 11  1  0
 11 12  2  0
 12 13  1  0
 13 14  1  0
 14 15  2  0
 15 16  1  0
 16 17  2  0
 17 18  1  0
 18 19  2  0
 19 20  1  0
 20 21  2  0
 21 22  1  0
 17 23  1  0
 23 24  2  0
  5 25  1  0
 25 26  2  0
 25 27  1  0
 27  2  1  0
 13  9  1  0
 23 14  1  0
 22 18  1  0
M  END
>  <Title>  (691) 
idABAOgen7

$$$$

     RDKit          2D

 34 38  0  0  0  0  0  0  0  0999 V2000
    4.1621    0.0000    0.0000 C   0  0  0  0  0  0  0  0  0  0  0  0
    2.6621    0.0000    0.0000 C   0  0  0  0  0  0  0  0  0  0  0  0
    2.2395    1.4392    0.0000 C   0  0  0  0  0  0  0  0  0  0  0  0
    1.1059    2.4215    0.0000 C   0  0  0  0  0  0  0  0  0  0  0  0
   -0.3789    2.6350    0.0000 C   0  0  0  0  0  0  0  0  0  0  0  0
   -1.7433    2.0119    0.0000 C   0  0  0  0  0  0  0  0  0  0  0  0
   -2.5543    0.7500    0.0000 N   0  0  0  0  0  0  0  0  0  0  0  0
   -4.0927    0.7411    0.0000 C   0  0  0  0  0  0  0  0  0  0  0  0
   -5.3546   -0.0698    0.0000 N   0  0  0  0  0  0  0  0  0  0  0  0
   -6.0420   -1.4031    0.0000 C   0  0  0  0  0  0  0  0  0  0  0  0
   -5.6754   -7.1622    0.0000 C   0  0  0  0  0  0  0  0  0  0  0  0
   -4.9541   -8.4774    0.0000 C   0  0  0  0  0  0  0  0  0  0  0  0
   -3.6922   -7.6665    0.0000 C   0  0  0  0  0  0  0  0  0  0  0  0
   -3.2469   -6.2341    0.0000 C   0  0  0  0  0  0  0  0  0  0  0  0
   -3.8264   -4.8506    0.0000 C   0  0  0  0  0  0  0  0  0  0  0  0
   -2.3281   -4.7792    0.0000 N   0  0  0  0  0  0  0  0  0  0  0  0
   -1.0662   -3.9683    0.0000 C   0  0  0  0  0  0  0  0  0  0  0  0
    0.0437   -4.9772    0.0000 O   0  0  0  0  0  0  0  0  0  0  0  0
   -0.3789   -2.6350    0.0000 N   0  0  0  0  0  0  0  0  0  0  0  0
    1.1059   -2.4215    0.0000 C   0  0  0  0  0  0  0  0  0  0  0  0
    2.2395   -1.4392    0.0000 C   0  0  0  0  0  0  0  0  0  0  0  0
   -1.7433   -2.0119    0.0000 C   0  0  0  0  0  0  0  0  0  0  0  0
   -2.5543   -0.7500    0.0000 C   0  0  0  0  0  0  0  0  0  0  0  0
   -5.1596   -4.1633    0.0000 N   0  0  0  0  0  0  0  0  0  0  0  0
   -6.6228   -4.4937    0.0000 N   0  0  0  0  0  0  0  0  0  0  0  0
   -7.5312   -5.6874    0.0000 N   0  0  0  0  0  0  0  0  0  0  0  0
   -7.4598   -7.1857    0.0000 N   0  0  0  0  0  0  0  0  0  0  0  0
   -6.4421   -8.2875    0.0000 C   0  0  0  0  0  0  0  0  0  0  0  0
   -6.5209   -7.3529    0.0000 C   0  0  0  0  0  0  0  0  0  0  0  0
   -6.3076   -5.7067    0.0000 C   0  0  0  0  0  0  0  0  0  0  0  0
   -6.5112   -5.6419    0.0000 C   0  0  0  0  0  0  0  0  0  0  0  0
   -6.2933   -4.1784    0.0000 C   0  0  0  0  0  0  0  0  0  0  0  0
   -6.2151   -4.2214    0.0000 C   0  0  0  0  0  0  0  0  0  0  0  0
   -5.9706   -2.9014    0.0000 C   0  0  0  0  0  0  0  0  0  0  0  0
  1  2  1  0
  2  3  2  0
  3  4  1  0
  4  5  2  0
  5  6  1  0
  6  7  1  0
  7  8  1  0
  8  9  2  0
  9 10  1  0
 10 11  2  0
 11 12  1  0
 12 13  2  0
 13 14  1  0
 14 15  2  0
 15 16  1  0
 16 17  1  0
 17 18  2  0
 17 19  1  0
 19 20  1  0
 20 21  2  0
 19 22  1  0
 22 23  1  0
 15 24  1  0
 24 25  1  0
 25 26  2  0
 26 27  1  0
 27 28  2  0
 28 29  1  0
 29 30  2  0
 30 31  1  0
 31 32  2  0
 32 33  1  0
 33 34  2  0
 21  2  1  0
 34 24  1  0
 23  7  1  0
 34 10  1  0
 28 12  1  0
M  END
>  <Title>  (692) 
idABAPgen7

$$$$

     RDKit          2D

 34 38  0  0  0  0  0  0  0  0999 V2000
    3.7500   -1.2990    0.0000 C   0  0  0  0  0  0  0  0  0  0  0  0
    3.0000    0.0000    0.0000 C   0  0  0  0  0  0  0  0  0  0  0  0
    1.5000    0.0000    0.0000 C   0  0  0  0  0  0  0  0  0  0  0  0
    0.7500   -1.2990    0.0000 C   0  0  0  0  0  0  0  0  0  0  0  0
   -0.7500   -1.2990    0.0000 C   0  0  0  0  0  0  0  0  0  0  0  0
   -1.5000    0.0000    0.0000 C   0  0  0  0  0  0  0  0  0  0  0  0
   -3.0000    0.0000    0.0000 C   0  0  0  0  0  0  0  0  0  0  0  0
   -3.7500   -1.2990    0.0000 O   0  0  0  0  0  0  0  0  0  0  0  0
   -3.7500    1.2990    0.0000 N   0  0  0  0  0  0  0  0  0  0  0  0
   -5.2500    1.2990    0.0000 C   0  0  0  0  0  0  0  0  0  0  0  0
   -6.1317    0.0855    0.0000 N   0  0  0  0  0  0  0  0  0  0  0  0
   -7.5583    0.5490    0.0000 N   0  0  0  0  0  0  0  0  0  0  0  0
   -7.5583    2.0490    0.0000 N   0  0  0  0  0  0  0  0  0  0  0  0
   -6.1317    2.5126    0.0000 N   0  0  0  0  0  0  0  0  0  0  0  0
   -5.6682    3.9391    0.0000 C   0  0  0  0  0  0  0  0  0  0  0  0
   -4.2009    4.2510    0.0000 C   0  0  0  0  0  0  0  0  0  0  0  0
   -3.7374    5.6776    0.0000 C   0  0  0  0  0  0  0  0  0  0  0  0
   -4.7411    6.7923    0.0000 C   0  0  0  0  0  0  0  0  0  0  0  0
   -4.2776    8.2189    0.0000 C   0  0  0  0  0  0  0  0  0  0  0  0
   -5.1593    9.4324    0.0000 N   0  0  0  0  0  0  0  0  0  0  0  0
   -4.2776   10.6460    0.0000 N   0  0  0  0  0  0  0  0  0  0  0  0
   -2.8510   10.1824    0.0000 N   0  0  0  0  0  0  0  0  0  0  0  0
   -2.8510    8.6824    0.0000 N   0  0  0  0  0  0  0  0  0  0  0  0
   -1.6375    7.8008    0.0000 C   0  0  0  0  0  0  0  0  0  0  0  0
   -1.7943    6.3090    0.0000 C   0  0  0  0  0  0  0  0  0  0  0  0
   -0.5807    5.4273    0.0000 C   0  0  0  0  0  0  0  0  0  0  0  0
    0.7896    6.0374    0.0000 C   0  0  0  0  0  0  0  0  0  0  0  0
    0.9464    7.5292    0.0000 C   0  0  0  0  0  0  0  0  0  0  0  0
   -0.2671    8.4109    0.0000 C   0  0  0  0  0  0  0  0  0  0  0  0
   -6.2083    6.4805    0.0000 C   0  0  0  0  0  0  0  0  0  0  0  0
   -6.6718    5.0539    0.0000 C   0  0  0  0  0  0  0  0  0  0  0  0
   -0.7500    1.2990    0.0000 C   0  0  0  0  0  0  0  0  0  0  0  0
   -1.5000    2.5981    0.0000 O   0  0  0  0  0  0  0  0  0  0  0  0
    0.7500    1.2990    0.0000 N   0  0  0  0  0  0  0  0  0  0  0  0
  1  2  1  0
  2  3  1  0
  3  4  2  0
  4  5  1  0
  5  6  2  0
  6  7  1  0
  7  8  2  0
  7  9  1  0
  9 10  1  0
 10 11  2  0
 11 12  1  0
 12 13  2  0
 13 14  1  0
 14 15  1  0
 15 16  2  0
 16 17  1  0
 17 18  2  0
 18 19  1  0
 19 20  2  0
 20 21  1  0
 21 22  2  0
 22 23  1  0
 23 24  1  0
 24 25  2  0
 25 26  1  0
 26 27  2  0
 27 28  1  0
 28 29  2  0
 18 30  1  0
 30 31  2  0
  6 32  1  0
 32 33  2  0
 32 34  1  0
 34  3  1  0
 14 10  1  0
 31 15  1  0
 23 19  1  0
 29 24  1  0
M  END
>  <Title>  (693) 
idABAQgen7

$$$$

     RDKit          2D

 19 20  0  0  0  0  0  0  0  0999 V2000
    4.7925    7.8214    0.0000 C   0  0  0  0  0  0  0  0  0  0  0  0
    4.5086    6.3485    0.0000 C   0  0  0  0  0  0  0  0  0  0  0  0
    5.6423    5.3662    0.0000 O   0  0  0  0  0  0  0  0  0  0  0  0
    3.0911    5.8579    0.0000 O   0  0  0  0  0  0  0  0  0  0  0  0
    2.8073    4.3850    0.0000 C   0  0  0  0  0  0  0  0  0  0  0  0
    3.9409    3.4027    0.0000 C   0  0  0  0  0  0  0  0  0  0  0  0
    3.6570    1.9298    0.0000 C   0  0  0  0  0  0  0  0  0  0  0  0
    2.2395    1.4392    0.0000 C   0  0  0  0  0  0  0  0  0  0  0  0
    2.6621    0.0000    0.0000 C   0  0  0  0  0  0  0  0  0  0  0  0
    2.2395   -1.4392    0.0000 C   0  0  0  0  0  0  0  0  0  0  0  0
    1.1059   -2.4215    0.0000 C   0  0  0  0  0  0  0  0  0  0  0  0
   -0.3789   -2.6350    0.0000 C   0  0  0  0  0  0  0  0  0  0  0  0
   -1.7433   -2.0119    0.0000 C   0  0  0  0  0  0  0  0  0  0  0  0
   -2.5543   -0.7500    0.0000 C   0  0  0  0  0  0  0  0  0  0  0  0
   -2.5543    0.7500    0.0000 C   0  0  0  0  0  0  0  0  0  0  0  0
   -1.7433    2.0119    0.0000 C   0  0  0  0  0  0  0  0  0  0  0  0
   -0.3789    2.6350    0.0000 C   0  0  0  0  0  0  0  0  0  0  0  0
    1.1059    2.4215    0.0000 C   0  0  0  0  0  0  0  0  0  0  0  0
    1.3898    3.8944    0.0000 O   0  0  0  0  0  0  0  0  0  0  0  0
  1  2  1  0
  2  3  2  0
  2  4  1  0
  4  5  1  0
  5  6  2  0
  6  7  1  0
  7  8  2  0
  8  9  1  0
  9 10  2  0
 10 11  1  0
 11 12  2  0
 12 13  1  0
 13 14  2  0
 14 15  1  0
 15 16  2  0
 16 17  1  0
 17 18  2  0
 18 19  1  0
 19  5  1  0
 18  8  1  0
M  END
>  <Title>  (694) 
idABARgen7

$$$$

     RDKit          2D

 14 14  0  0  0  0  0  0  0  0999 V2000
    5.7098   -1.2990    0.0000 C   0  0  0  0  0  0  0  0  0  0  0  0
    4.2098   -1.2990    0.0000 C   0  0  0  0  0  0  0  0  0  0  0  0
    3.4598   -2.5981    0.0000 O   0  0  0  0  0  0  0  0  0  0  0  0
    3.4598   -0.0000    0.0000 N   0  0  0  0  0  0  0  0  0  0  0  0
    1.9598    0.0000    0.0000 C   0  0  0  0  0  0  0  0  0  0  0  0
    1.3858   -1.3858    0.0000 C   0  0  0  0  0  0  0  0  0  0  0  0
   -0.0000   -1.9598    0.0000 C   0  0  0  0  0  0  0  0  0  0  0  0
   -1.3858   -1.3858    0.0000 C   0  0  0  0  0  0  0  0  0  0  0  0
   -1.9598    0.0000    0.0000 C   0  0  0  0  0  0  0  0  0  0  0  0
   -1.3858    1.3858    0.0000 C   0  0  0  0  0  0  0  0  0  0  0  0
   -2.4465    2.4465    0.0000 F   0  0  0  0  0  0  0  0  0  0  0  0
    0.0000    1.9598    0.0000 C   0  0  0  0  0  0  0  0  0  0  0  0
    0.0000    3.4598    0.0000 C   0  0  0  0  0  0  0  0  0  0  0  0
    1.3858    1.3858    0.0000 C   0  0  0  0  0  0  0  0  0  0  0  0
  1  2  1  0
  2  3  2  0
  2  4  1  0
  4  5  1  0
  5  6  2  0
  6  7  1  0
  7  8  2  0
  8  9  1  0
  9 10  2  0
 10 11  1  0
 10 12  1  0
 12 13  1  0
 12 14  2  0
 14  5  1  0
M  END
>  <Title>  (695) 
idABASgen7

$$$$

     RDKit          2D

 26 28  0  0  0  0  0  0  0  0999 V2000
    3.0000    0.0000    0.0000 C   0  0  0  0  0  0  0  0  0  0  0  0
    1.5000    0.0000    0.0000 C   0  0  0  0  0  0  0  0  0  0  0  0
    0.7500   -1.2990    0.0000 C   0  0  0  0  0  0  0  0  0  0  0  0
   -0.7500   -1.2990    0.0000 C   0  0  0  0  0  0  0  0  0  0  0  0
   -1.5000    0.0000    0.0000 C   0  0  0  0  0  0  0  0  0  0  0  0
   -3.0000    0.0000    0.0000 C   0  0  0  0  0  0  0  0  0  0  0  0
   -3.7500   -1.2990    0.0000 O   0  0  0  0  0  0  0  0  0  0  0  0
   -3.7500    1.2990    0.0000 N   0  0  0  0  0  0  0  0  0  0  0  0
   -5.2500    1.2990    0.0000 C   0  0  0  0  0  0  0  0  0  0  0  0
   -6.1317    0.0855    0.0000 N   0  0  0  0  0  0  0  0  0  0  0  0
   -7.5583    0.5490    0.0000 C   0  0  0  0  0  0  0  0  0  0  0  0
   -8.7718   -0.3326    0.0000 C   0  0  0  0  0  0  0  0  0  0  0  0
   -8.6150   -1.8244    0.0000 O   0  0  0  0  0  0  0  0  0  0  0  0
  -10.1421    0.2775    0.0000 N   0  0  0  0  0  0  0  0  0  0  0  0
  -11.3556   -0.6042    0.0000 C   0  0  0  0  0  0  0  0  0  0  0  0
  -12.7260    0.0059    0.0000 C   0  0  0  0  0  0  0  0  0  0  0  0
  -13.9395   -0.8758    0.0000 C   0  0  0  0  0  0  0  0  0  0  0  0
  -13.7827   -2.3676    0.0000 C   0  0  0  0  0  0  0  0  0  0  0  0
  -12.4124   -2.9777    0.0000 C   0  0  0  0  0  0  0  0  0  0  0  0
  -11.1988   -2.0960    0.0000 C   0  0  0  0  0  0  0  0  0  0  0  0
   -7.5583    2.0490    0.0000 C   0  0  0  0  0  0  0  0  0  0  0  0
   -8.7718    2.9307    0.0000 O   0  0  0  0  0  0  0  0  0  0  0  0
   -6.1317    2.5126    0.0000 N   0  0  0  0  0  0  0  0  0  0  0  0
   -0.7500    1.2990    0.0000 C   0  0  0  0  0  0  0  0  0  0  0  0
   -1.5000    2.5981    0.0000 O   0  0  0  0  0  0  0  0  0  0  0  0
    0.7500    1.2990    0.0000 N   0  0  0  0  0  0  0  0  0  0  0  0
  1  2  1  0
  2  3  2  0
  3  4  1  0
  4  5  2  0
  5  6  1  0
  6  7  2  0
  6  8  1  0
  8  9  1  0
  9 10  2  0
 10 11  1  0
 11 12  1  0
 12 13  2  0
 12 14  1  0
 14 15  1  0
 15 16  2  0
 16 17  1  0
 17 18  2  0
 18 19  1  0
 19 20  2  0
 11 21  1  0
 21 22  2  0
 21 23  1  0
  5 24  1  0
 24 25  2  0
 24 26  1  0
 26  2  1  0
 23  9  1  0
 20 15  1  0
M  END
>  <Title>  (696) 
idABATgen7

$$$$

     RDKit          2D

 28 31  0  0  0  0  0  0  0  0999 V2000
    3.0000    0.0000    0.0000 C   0  0  0  0  0  0  0  0  0  0  0  0
    1.5000    0.0000    0.0000 C   0  0  0  0  0  0  0  0  0  0  0  0
    0.7500   -1.2990    0.0000 C   0  0  0  0  0  0  0  0  0  0  0  0
   -0.7500   -1.2990    0.0000 C   0  0  0  0  0  0  0  0  0  0  0  0
   -1.5000    0.0000    0.0000 C   0  0  0  0  0  0  0  0  0  0  0  0
   -3.0000    0.0000    0.0000 C   0  0  0  0  0  0  0  0  0  0  0  0
   -3.7500   -1.2990    0.0000 O   0  0  0  0  0  0  0  0  0  0  0  0
   -3.7500    1.2990    0.0000 N   0  0  0  0  0  0  0  0  0  0  0  0
   -5.2500    1.2990    0.0000 C   0  0  0  0  0  0  0  0  0  0  0  0
   -6.1317    0.0855    0.0000 N   0  0  0  0  0  0  0  0  0  0  0  0
   -7.5583    0.5490    0.0000 N   0  0  0  0  0  0  0  0  0  0  0  0
   -7.5583    2.0490    0.0000 N   0  0  0  0  0  0  0  0  0  0  0  0
   -6.1317    2.5126    0.0000 N   0  0  0  0  0  0  0  0  0  0  0  0
   -5.6682    3.9391    0.0000 C   0  0  0  0  0  0  0  0  0  0  0  0
   -4.2009    4.2510    0.0000 C   0  0  0  0  0  0  0  0  0  0  0  0
   -3.7374    5.6776    0.0000 C   0  0  0  0  0  0  0  0  0  0  0  0
   -4.7411    6.7923    0.0000 C   0  0  0  0  0  0  0  0  0  0  0  0
   -4.2776    8.2189    0.0000 C   0  0  0  0  0  0  0  0  0  0  0  0
   -2.8104    8.5308    0.0000 C   0  0  0  0  0  0  0  0  0  0  0  0
   -2.3468    9.9574    0.0000 C   0  0  0  0  0  0  0  0  0  0  0  0
   -3.3505   11.0721    0.0000 C   0  0  0  0  0  0  0  0  0  0  0  0
   -4.8177   10.7602    0.0000 C   0  0  0  0  0  0  0  0  0  0  0  0
   -5.2813    9.3336    0.0000 C   0  0  0  0  0  0  0  0  0  0  0  0
   -6.2083    6.4805    0.0000 C   0  0  0  0  0  0  0  0  0  0  0  0
   -7.2120    7.5952    0.0000 O   0  0  0  0  0  0  0  0  0  0  0  0
   -6.6718    5.0539    0.0000 C   0  0  0  0  0  0  0  0  0  0  0  0
   -0.7500    1.2990    0.0000 C   0  0  0  0  0  0  0  0  0  0  0  0
    0.7500    1.2990    0.0000 C   0  0  0  0  0  0  0  0  0  0  0  0
  1  2  1  0
  2  3  2  0
  3  4  1  0
  4  5  2  0
  5  6  1  0
  6  7  2  0
  6  8  1  0
  8  9  1  0
  9 10  2  0
 10 11  1  0
 11 12  2  0
 12 13  1  0
 13 14  1  0
 14 15  2  0
 15 16  1  0
 16 17  2  0
 17 18  1  0
 18 19  2  0
 19 20  1  0
 20 21  2  0
 21 22  1  0
 22 23  2  0
 17 24  1  0
 24 25  2  0
 24 26  1  0
  5 27  1  0
 27 28  2  0
 28  2  1  0
 13  9  1  0
 26 14  1  0
 23 18  1  0
M  END
>  <Title>  (697) 
idABAUgen7

$$$$

     RDKit          2D

 21 23  0  0  0  0  0  0  0  0999 V2000
   -7.5000   -5.1962    0.0000 C   0  0  0  0  0  0  0  0  0  0  0  0
   -6.0000   -5.1962    0.0000 O   0  0  0  0  0  0  0  0  0  0  0  0
   -5.2500   -3.8971    0.0000 C   0  0  0  0  0  0  0  0  0  0  0  0
   -6.0000   -2.5981    0.0000 C   0  0  0  0  0  0  0  0  0  0  0  0
   -5.2500   -1.2990    0.0000 C   0  0  0  0  0  0  0  0  0  0  0  0
   -3.7500   -1.2990    0.0000 C   0  0  0  0  0  0  0  0  0  0  0  0
   -3.0000    0.0000    0.0000 C   0  0  0  0  0  0  0  0  0  0  0  0
   -3.7500    1.2990    0.0000 C   0  0  0  0  0  0  0  0  0  0  0  0
   -5.2418    1.4558    0.0000 C   0  0  0  0  0  0  0  0  0  0  0  0
   -5.5537    2.9231    0.0000 N   0  0  0  0  0  0  0  0  0  0  0  0
   -4.2546    3.6731    0.0000 N   0  0  0  0  0  0  0  0  0  0  0  0
   -3.1399    2.6694    0.0000 N   0  0  0  0  0  0  0  0  0  0  0  0
   -1.6727    2.9812    0.0000 C   0  0  0  0  0  0  0  0  0  0  0  0
   -1.2091    4.4078    0.0000 C   0  0  0  0  0  0  0  0  0  0  0  0
    0.2581    4.7197    0.0000 C   0  0  0  0  0  0  0  0  0  0  0  0
    1.2618    3.6050    0.0000 C   0  0  0  0  0  0  0  0  0  0  0  0
    0.7982    2.1784    0.0000 C   0  0  0  0  0  0  0  0  0  0  0  0
   -0.6690    1.8665    0.0000 C   0  0  0  0  0  0  0  0  0  0  0  0
   -3.0000   -2.5981    0.0000 C   0  0  0  0  0  0  0  0  0  0  0  0
   -1.5000   -2.5981    0.0000 O   0  0  0  0  0  0  0  0  0  0  0  0
   -3.7500   -3.8971    0.0000 N   0  0  0  0  0  0  0  0  0  0  0  0
  1  2  1  0
  2  3  1  0
  3  4  2  0
  4  5  1  0
  5  6  2  0
  6  7  1  0
  7  8  1  0
  8  9  2  0
  9 10  1  0
 10 11  2  0
 11 12  1  0
 12 13  1  0
 13 14  2  0
 14 15  1  0
 15 16  2  0
 16 17  1  0
 17 18  2  0
  6 19  1  0
 19 20  2  0
 19 21  1  0
 21  3  1  0
 12  8  1  0
 18 13  1  0
M  END
>  <Title>  (698) 
idABAVgen7

$$$$

     RDKit          2D

 27 30  0  0  0  0  0  0  0  0999 V2000
   -7.5000   -5.1962    0.0000 C   0  0  0  0  0  0  0  0  0  0  0  0
   -6.0000   -5.1962    0.0000 O   0  0  0  0  0  0  0  0  0  0  0  0
   -5.2500   -3.8971    0.0000 C   0  0  0  0  0  0  0  0  0  0  0  0
   -6.0000   -2.5981    0.0000 C   0  0  0  0  0  0  0  0  0  0  0  0
   -5.2500   -1.2990    0.0000 C   0  0  0  0  0  0  0  0  0  0  0  0
   -3.7500   -1.2990    0.0000 C   0  0  0  0  0  0  0  0  0  0  0  0
   -3.0000    0.0000    0.0000 C   0  0  0  0  0  0  0  0  0  0  0  0
   -3.7500    1.2990    0.0000 C   0  0  0  0  0  0  0  0  0  0  0  0
   -5.2418    1.4558    0.0000 N   0  0  0  0  0  0  0  0  0  0  0  0
   -5.5537    2.9231    0.0000 N   0  0  0  0  0  0  0  0  0  0  0  0
   -4.2546    3.6731    0.0000 N   0  0  0  0  0  0  0  0  0  0  0  0
   -3.1399    2.6694    0.0000 N   0  0  0  0  0  0  0  0  0  0  0  0
   -1.6727    2.9812    0.0000 C   0  0  0  0  0  0  0  0  0  0  0  0
   -1.2091    4.4078    0.0000 C   0  0  0  0  0  0  0  0  0  0  0  0
    0.2581    4.7197    0.0000 C   0  0  0  0  0  0  0  0  0  0  0  0
    1.2618    3.6050    0.0000 C   0  0  0  0  0  0  0  0  0  0  0  0
    2.7290    3.9168    0.0000 C   0  0  0  0  0  0  0  0  0  0  0  0
    3.1925    5.3434    0.0000 C   0  0  0  0  0  0  0  0  0  0  0  0
    4.6597    5.6553    0.0000 C   0  0  0  0  0  0  0  0  0  0  0  0
    5.6634    4.5406    0.0000 C   0  0  0  0  0  0  0  0  0  0  0  0
    5.1999    3.1140    0.0000 C   0  0  0  0  0  0  0  0  0  0  0  0
    3.7327    2.8021    0.0000 C   0  0  0  0  0  0  0  0  0  0  0  0
    0.7982    2.1784    0.0000 C   0  0  0  0  0  0  0  0  0  0  0  0
   -0.6690    1.8665    0.0000 C   0  0  0  0  0  0  0  0  0  0  0  0
   -3.0000   -2.5981    0.0000 C   0  0  0  0  0  0  0  0  0  0  0  0
   -1.5000   -2.5981    0.0000 O   0  0  0  0  0  0  0  0  0  0  0  0
   -3.7500   -3.8971    0.0000 N   0  0  0  0  0  0  0  0  0  0  0  0
  1  2  1  0
  2  3  1  0
  3  4  2  0
  4  5  1  0
  5  6  2  0
  6  7  1  0
  7  8  1  0
  8  9  2  0
  9 10  1  0
 10 11  2  0
 11 12  1  0
 12 13  1  0
 13 14  2  0
 14 15  1  0
 15 16  2  0
 16 17  1  0
 17 18  2  0
 18 19  1  0
 19 20  2  0
 20 21  1  0
 21 22  2  0
 16 23  1  0
 23 24  2  0
  6 25  1  0
 25 26  2  0
 25 27  1  0
 27  3  1  0
 12  8  1  0
 24 13  1  0
 22 17  1  0
M  END
>  <Title>  (699) 
idABAWgen7

$$$$

     RDKit          2D

 34 38  0  0  0  0  0  0  0  0999 V2000
    3.2286   -0.0000    0.0000 C   0  0  0  0  0  0  0  0  0  0  0  0
    1.7286    0.0000    0.0000 C   0  0  0  0  0  0  0  0  0  0  0  0
    1.0777    1.3515    0.0000 C   0  0  0  0  0  0  0  0  0  0  0  0
   -0.3846    1.6852    0.0000 C   0  0  0  0  0  0  0  0  0  0  0  0
   -1.5574    0.7500    0.0000 C   0  0  0  0  0  0  0  0  0  0  0  0
   -2.9088    1.4008    0.0000 C   0  0  0  0  0  0  0  0  0  0  0  0
   -4.2297    0.6900    0.0000 N   0  0  0  0  0  0  0  0  0  0  0  0
   -5.3139    1.7266    0.0000 N   0  0  0  0  0  0  0  0  0  0  0  0
   -4.6631    3.0781    0.0000 N   0  0  0  0  0  0  0  0  0  0  0  0
   -3.1767    2.8767    0.0000 N   0  0  0  0  0  0  0  0  0  0  0  0
   -2.1401    3.9609    0.0000 C   0  0  0  0  0  0  0  0  0  0  0  0
   -2.4079    5.4368    0.0000 C   0  0  0  0  0  0  0  0  0  0  0  0
   -1.0870    6.1476    0.0000 C   0  0  0  0  0  0  0  0  0  0  0  0
   -0.0028    5.1110    0.0000 C   0  0  0  0  0  0  0  0  0  0  0  0
    1.4731    5.3789    0.0000 C   0  0  0  0  0  0  0  0  0  0  0  0
    1.6223    6.8714    0.0000 O   0  0  0  0  0  0  0  0  0  0  0  0
    2.4430    4.2346    0.0000 N   0  0  0  0  0  0  0  0  0  0  0  0
    3.9189    4.5024    0.0000 C   0  0  0  0  0  0  0  0  0  0  0  0
    5.0030    3.4658    0.0000 N   0  0  0  0  0  0  0  0  0  0  0  0
    6.3239    4.1767    0.0000 N   0  0  0  0  0  0  0  0  0  0  0  0
    6.0561    5.6525    0.0000 N   0  0  0  0  0  0  0  0  0  0  0  0
    4.5697    5.8539    0.0000 N   0  0  0  0  0  0  0  0  0  0  0  0
    3.8589    7.1748    0.0000 C   0  0  0  0  0  0  0  0  0  0  0  0
    4.6474    8.4508    0.0000 C   0  0  0  0  0  0  0  0  0  0  0  0
    3.9366    9.7717    0.0000 C   0  0  0  0  0  0  0  0  0  0  0  0
    2.4373    9.8166    0.0000 C   0  0  0  0  0  0  0  0  0  0  0  0
    1.6487    8.5406    0.0000 C   0  0  0  0  0  0  0  0  0  0  0  0
    2.3595    7.2197    0.0000 C   0  0  0  0  0  0  0  0  0  0  0  0
   -0.6537    3.7596    0.0000 C   0  0  0  0  0  0  0  0  0  0  0  0
    0.0571    2.4387    0.0000 O   0  0  0  0  0  0  0  0  0  0  0  0
   -1.5574   -0.7500    0.0000 N   0  0  0  0  0  0  0  0  0  0  0  0
   -0.3846   -1.6852    0.0000 C   0  0  0  0  0  0  0  0  0  0  0  0
   -0.7184   -3.1476    0.0000 O   0  0  0  0  0  0  0  0  0  0  0  0
    1.0777   -1.3515    0.0000 N   0  0  0  0  0  0  0  0  0  0  0  0
  1  2  1  0
  2  3  2  0
  3  4  1  0
  4  5  2  0
  5  6  1  0
  6  7  2  0
  7  8  1  0
  8  9  2  0
  9 10  1  0
 10 11  1  0
 11 12  2  0
 12 13  1  0
 13 14  2  0
 14 15  1  0
 15 16  2  0
 15 17  1  0
 17 18  1  0
 18 19  2  0
 19 20  1  0
 20 21  2  0
 21 22  1  0
 22 23  1  0
 23 24  2  0
 24 25  1  0
 25 26  2  0
 26 27  1  0
 27 28  2  0
 14 29  1  0
 29 30  2  0
  5 31  1  0
 31 32  1  0
 32 33  2  0
 32 34  1  0
 34  2  1  0
 10  6  1  0
 29 11  1  0
 22 18  1  0
 28 23  1  0
M  END
>  <Title>  (700) 
idABAXgen7

$$$$

     RDKit          2D

 10  9  0  0  0  0  0  0  0  0999 V2000
    0.0000    0.0000    0.0000 C   0  0  0  0  0  0  0  0  0  0  0  0
    1.2990    0.7500    0.0000 C   0  0  0  0  0  0  0  0  0  0  0  0
    1.2990    2.2500    0.0000 O   0  0  0  0  0  0  0  0  0  0  0  0
    2.5981   -0.0000    0.0000 N   0  0  0  0  0  0  0  0  0  0  0  0
    3.8971    0.7500    0.0000 C   0  0  0  0  0  0  0  0  0  0  0  0
    5.1962   -0.0000    0.0000 C   0  0  0  0  0  0  0  0  0  0  0  0
    3.8971    2.2500    0.0000 C   0  0  0  0  0  0  0  0  0  0  0  0
    5.1962    3.0000    0.0000 C   0  0  0  0  0  0  0  0  0  0  0  0
    5.1962    4.5000    0.0000 C   0  0  0  0  0  0  0  0  0  0  0  0
    6.4952    2.2500    0.0000 C   0  0  0  0  0  0  0  0  0  0  0  0
  1  2  1  0
  2  3  2  0
  2  4  1  0
  4  5  1  0
  5  6  1  0
  5  7  1  0
  7  8  1  0
  8  9  1  0
  8 10  1  0
M  END
>  <Title>  (701) 
idABAYgen7

$$$$

     RDKit          2D

 51 58  0  0  0  0  0  0  0  0999 V2000
    7.1303    5.4008    0.0000 C   0  0  0  0  0  0  0  0  0  0  0  0
    6.1266    4.2861    0.0000 C   0  0  0  0  0  0  0  0  0  0  0  0
    4.6348    4.4429    0.0000 C   0  0  0  0  0  0  0  0  0  0  0  0
    4.0247    3.0725    0.0000 C   0  0  0  0  0  0  0  0  0  0  0  0
    5.1394    2.0689    0.0000 C   0  0  0  0  0  0  0  0  0  0  0  0
    4.9826    0.5771    0.0000 C   0  0  0  0  0  0  0  0  0  0  0  0
    6.0974   -0.4266    0.0000 C   0  0  0  0  0  0  0  0  0  0  0  0
    5.4873   -1.7969    0.0000 C   0  0  0  0  0  0  0  0  0  0  0  0
    3.9955   -1.6402    0.0000 C   0  0  0  0  0  0  0  0  0  0  0  0
    2.9918   -2.7549    0.0000 N   0  0  0  0  0  0  0  0  0  0  0  0
    3.3037   -4.2221    0.0000 N   0  0  0  0  0  0  0  0  0  0  0  0
    2.0046   -4.9721    0.0000 N   0  0  0  0  0  0  0  0  0  0  0  0
    0.8899   -3.9684    0.0000 C   0  0  0  0  0  0  0  0  0  0  0  0
    1.5000   -2.5981    0.0000 C   0  0  0  0  0  0  0  0  0  0  0  0
    0.7500   -1.2990    0.0000 C   0  0  0  0  0  0  0  0  0  0  0  0
    1.5000    0.0000    0.0000 C   0  0  0  0  0  0  0  0  0  0  0  0
    0.7500    1.2990    0.0000 C   0  0  0  0  0  0  0  0  0  0  0  0
    1.5000    2.5981    0.0000 C   0  0  0  0  0  0  0  0  0  0  0  0
    2.9918    2.7549    0.0000 N   0  0  0  0  0  0  0  0  0  0  0  0
    3.3037    4.2221    0.0000 N   0  0  0  0  0  0  0  0  0  0  0  0
    2.0046    4.9721    0.0000 N   0  0  0  0  0  0  0  0  0  0  0  0
    0.8899    3.9684    0.0000 N   0  0  0  0  0  0  0  0  0  0  0  0
   -0.5773    4.2803    0.0000 C   0  0  0  0  0  0  0  0  0  0  0  0
   -1.5810    3.1655    0.0000 C   0  0  0  0  0  0  0  0  0  0  0  0
   -3.0482    3.4774    0.0000 C   0  0  0  0  0  0  0  0  0  0  0  0
   -3.5118    4.9040    0.0000 C   0  0  0  0  0  0  0  0  0  0  0  0
   -2.5081    6.0187    0.0000 C   0  0  0  0  0  0  0  0  0  0  0  0
   -1.0409    5.7068    0.0000 C   0  0  0  0  0  0  0  0  0  0  0  0
   -0.7500    1.2990    0.0000 C   0  0  0  0  0  0  0  0  0  0  0  0
   -1.5000    0.0000    0.0000 C   0  0  0  0  0  0  0  0  0  0  0  0
   -0.7500   -1.2990    0.0000 C   0  0  0  0  0  0  0  0  0  0  0  0
   -1.5000   -2.5981    0.0000 N   0  0  0  0  0  0  0  0  0  0  0  0
   -0.8899   -3.9684    0.0000 N   0  0  0  0  0  0  0  0  0  0  0  0
   -2.0046   -4.9721    0.0000 N   0  0  0  0  0  0  0  0  0  0  0  0
   -3.3037   -4.2221    0.0000 N   0  0  0  0  0  0  0  0  0  0  0  0
   -2.9918   -2.7549    0.0000 C   0  0  0  0  0  0  0  0  0  0  0  0
   -3.9955   -1.6402    0.0000 N   0  0  0  0  0  0  0  0  0  0  0  0
   -5.4627   -1.9520    0.0000 C   0  0  0  0  0  0  0  0  0  0  0  0
   -5.9262   -3.3786    0.0000 O   0  0  0  0  0  0  0  0  0  0  0  0
   -6.4664   -0.8373    0.0000 C   0  0  0  0  0  0  0  0  0  0  0  0
   -6.0029    0.5893    0.0000 C   0  0  0  0  0  0  0  0  0  0  0  0
   -7.0066    1.7040    0.0000 C   0  0  0  0  0  0  0  0  0  0  0  0
   -8.4738    1.3921    0.0000 C   0  0  0  0  0  0  0  0  0  0  0  0
   -9.4775    2.5068    0.0000 C   0  0  0  0  0  0  0  0  0  0  0  0
   -8.9373   -0.0345    0.0000 N   0  0  0  0  0  0  0  0  0  0  0  0
   -7.9336   -1.1492    0.0000 C   0  0  0  0  0  0  0  0  0  0  0  0
   -8.3971   -2.5758    0.0000 O   0  0  0  0  0  0  0  0  0  0  0  0
    3.6836   -0.1729    0.0000 C   0  0  0  0  0  0  0  0  0  0  0  0
    2.3133    0.4372    0.0000 O   0  0  0  0  0  0  0  0  0  0  0  0
    6.4385    2.8189    0.0000 C   0  0  0  0  0  0  0  0  0  0  0  0
    7.8088    2.2087    0.0000 O   0  0  0  0  0  0  0  0  0  0  0  0
  1  2  1  0
  2  3  2  0
  3  4  1  0
  4  5  2  0
  5  6  1  0
  6  7  2  0
  7  8  1  0
  8  9  2  0
  9 10  1  0
 10 11  1  0
 11 12  2  0
 12 13  1  0
 13 14  2  0
 14 15  1  0
 15 16  2  0
 16 17  1  0
 17 18  1  0
 18 19  2  0
 19 20  1  0
 20 21  2  0
 21 22  1  0
 22 23  1  0
 23 24  2  0
 24 25  1  0
 25 26  2  0
 26 27  1  0
 27 28  2  0
 17 29  2  0
 29 30  1  0
 30 31  2  0
 31 32  1  0
 32 33  1  0
 33 34  2  0
 34 35  1  0
 35 36  2  0
 36 37  1  0
 37 38  1  0
 38 39  2  0
 38 40  1  0
 40 41  2  0
 41 42  1  0
 42 43  2  0
 43 44  1  0
 43 45  1  0
 45 46  1  0
 46 47  2  0
  9 48  1  0
 48 49  2  0
  5 50  1  0
 50 51  2  0
 50  2  1  0
 48  6  1  0
 14 10  1  0
 31 15  1  0
 36 32  1  0
 46 40  1  0
 22 18  1  0
 28 23  1  0
M  END
>  <Title>  (702) 
idABAZgen7

$$$$

     RDKit          2D

 18 19  0  0  0  0  0  0  0  0999 V2000
   -3.4253    4.0828    0.0000 O   0  0  0  0  0  0  0  0  0  0  0  0
   -1.9264    4.1389    0.0000 C   0  0  0  0  0  0  0  0  0  0  0  0
   -1.5926    5.6012    0.0000 C   0  0  0  0  0  0  0  0  0  0  0  0
   -0.5723    6.7008    0.0000 C   0  0  0  0  0  0  0  0  0  0  0  0
    0.8610    7.1430    0.0000 C   0  0  0  0  0  0  0  0  0  0  0  0
    2.3234    6.8092    0.0000 C   0  0  0  0  0  0  0  0  0  0  0  0
    3.4230    5.7889    0.0000 C   0  0  0  0  0  0  0  0  0  0  0  0
    3.8651    4.3556    0.0000 C   0  0  0  0  0  0  0  0  0  0  0  0
    3.5314    2.8932    0.0000 C   0  0  0  0  0  0  0  0  0  0  0  0
    2.5111    1.7936    0.0000 C   0  0  0  0  0  0  0  0  0  0  0  0
    1.0777    1.3515    0.0000 C   0  0  0  0  0  0  0  0  0  0  0  0
    1.7286    0.0000    0.0000 C   0  0  0  0  0  0  0  0  0  0  0  0
    1.0777   -1.3515    0.0000 C   0  0  0  0  0  0  0  0  0  0  0  0
   -0.3846   -1.6852    0.0000 C   0  0  0  0  0  0  0  0  0  0  0  0
   -1.5574   -0.7500    0.0000 C   0  0  0  0  0  0  0  0  0  0  0  0
   -1.5574    0.7500    0.0000 C   0  0  0  0  0  0  0  0  0  0  0  0
   -0.3846    1.6852    0.0000 C   0  0  0  0  0  0  0  0  0  0  0  0
   -1.4842    2.7055    0.0000 C   0  0  0  0  0  0  0  0  0  0  0  0
  1  2  1  0
  2  3  2  0
  3  4  1  0
  4  5  2  0
  5  6  1  0
  6  7  2  0
  7  8  1  0
  8  9  2  0
  9 10  1  0
 10 11  2  0
 11 12  1  0
 12 13  2  0
 13 14  1  0
 14 15  2  0
 15 16  1  0
 16 17  2  0
 17 18  1  0
 18  2  1  0
 17 11  1  0
M  END
>  <Title>  (703) 
idABBAgen7

$$$$

     RDKit          2D

 29 33  0  0  0  0  0  0  0  0999 V2000
    7.5646   -0.1148    0.0000 C   0  0  0  0  0  0  0  0  0  0  0  0
    6.0974   -0.4266    0.0000 C   0  0  0  0  0  0  0  0  0  0  0  0
    4.9826    0.5771    0.0000 C   0  0  0  0  0  0  0  0  0  0  0  0
    3.6836   -0.1729    0.0000 C   0  0  0  0  0  0  0  0  0  0  0  0
    3.9955   -1.6402    0.0000 C   0  0  0  0  0  0  0  0  0  0  0  0
    2.9918   -2.7549    0.0000 N   0  0  0  0  0  0  0  0  0  0  0  0
    3.3037   -4.2221    0.0000 N   0  0  0  0  0  0  0  0  0  0  0  0
    2.0046   -4.9721    0.0000 N   0  0  0  0  0  0  0  0  0  0  0  0
    0.8899   -3.9684    0.0000 N   0  0  0  0  0  0  0  0  0  0  0  0
    1.5000   -2.5981    0.0000 C   0  0  0  0  0  0  0  0  0  0  0  0
    0.7500   -1.2990    0.0000 N   0  0  0  0  0  0  0  0  0  0  0  0
    1.5000    0.0000    0.0000 N   0  0  0  0  0  0  0  0  0  0  0  0
    0.7500    1.2990    0.0000 N   0  0  0  0  0  0  0  0  0  0  0  0
   -0.7500    1.2990    0.0000 N   0  0  0  0  0  0  0  0  0  0  0  0
   -1.5000    0.0000    0.0000 N   0  0  0  0  0  0  0  0  0  0  0  0
   -0.7500   -1.2990    0.0000 N   0  0  0  0  0  0  0  0  0  0  0  0
   -1.5000   -2.5981    0.0000 C   0  0  0  0  0  0  0  0  0  0  0  0
   -0.8899   -3.9684    0.0000 C   0  0  0  0  0  0  0  0  0  0  0  0
   -2.0046   -4.9721    0.0000 C   0  0  0  0  0  0  0  0  0  0  0  0
   -3.3037   -4.2221    0.0000 C   0  0  0  0  0  0  0  0  0  0  0  0
   -4.6740   -4.8322    0.0000 C   0  0  0  0  0  0  0  0  0  0  0  0
   -5.8875   -3.9505    0.0000 C   0  0  0  0  0  0  0  0  0  0  0  0
   -7.2578   -4.5606    0.0000 N   0  0  0  0  0  0  0  0  0  0  0  0
   -7.4146   -6.0524    0.0000 N   0  0  0  0  0  0  0  0  0  0  0  0
   -6.2011   -6.9341    0.0000 N   0  0  0  0  0  0  0  0  0  0  0  0
   -4.8308   -6.3240    0.0000 C   0  0  0  0  0  0  0  0  0  0  0  0
   -2.9918   -2.7549    0.0000 C   0  0  0  0  0  0  0  0  0  0  0  0
   -3.9955   -1.6402    0.0000 O   0  0  0  0  0  0  0  0  0  0  0  0
    5.4873   -1.7969    0.0000 C   0  0  0  0  0  0  0  0  0  0  0  0
  1  2  1  0
  2  3  2  0
  3  4  1  0
  4  5  2  0
  5  6  1  0
  6  7  1  0
  7  8  2  0
  8  9  1  0
  9 10  2  0
 10 11  1  0
 11 12  1  0
 12 13  2  0
 13 14  1  0
 14 15  2  0
 15 16  1  0
 16 17  1  0
 17 18  2  0
 18 19  1  0
 19 20  2  0
 20 21  1  0
 21 22  2  0
 22 23  1  0
 23 24  2  0
 24 25  1  0
 25 26  2  0
 20 27  1  0
 27 28  2  0
  5 29  1  0
 29  2  1  0
 10  6  1  0
 16 11  1  0
 27 17  1  0
 26 21  1  0
M  END
>  <Title>  (704) 
idABBBgen7

$$$$

     RDKit          2D

 44 49  0  0  0  0  0  0  0  0999 V2000
    3.7500   -1.2990    0.0000 C   0  0  0  0  0  0  0  0  0  0  0  0
    3.0000    0.0000    0.0000 O   0  0  0  0  0  0  0  0  0  0  0  0
    1.5000    0.0000    0.0000 C   0  0  0  0  0  0  0  0  0  0  0  0
    0.7500   -1.2990    0.0000 C   0  0  0  0  0  0  0  0  0  0  0  0
   -0.7500   -1.2990    0.0000 C   0  0  0  0  0  0  0  0  0  0  0  0
   -1.5000    0.0000    0.0000 C   0  0  0  0  0  0  0  0  0  0  0  0
   -3.0000    0.0000    0.0000 C   0  0  0  0  0  0  0  0  0  0  0  0
   -3.7500   -1.2990    0.0000 O   0  0  0  0  0  0  0  0  0  0  0  0
   -3.7500    1.2990    0.0000 N   0  0  0  0  0  0  0  0  0  0  0  0
   -5.2500    1.2990    0.0000 C   0  0  0  0  0  0  0  0  0  0  0  0
   -6.1317    0.0855    0.0000 N   0  0  0  0  0  0  0  0  0  0  0  0
   -7.5583    0.5490    0.0000 N   0  0  0  0  0  0  0  0  0  0  0  0
   -7.5583    2.0490    0.0000 N   0  0  0  0  0  0  0  0  0  0  0  0
   -6.1317    2.5126    0.0000 N   0  0  0  0  0  0  0  0  0  0  0  0
   -5.6682    3.9391    0.0000 C   0  0  0  0  0  0  0  0  0  0  0  0
   -4.2009    4.2510    0.0000 C   0  0  0  0  0  0  0  0  0  0  0  0
   -3.7374    5.6776    0.0000 C   0  0  0  0  0  0  0  0  0  0  0  0
   -4.7411    6.7923    0.0000 C   0  0  0  0  0  0  0  0  0  0  0  0
   -4.2776    8.2189    0.0000 C   0  0  0  0  0  0  0  0  0  0  0  0
   -5.1593    9.4324    0.0000 N   0  0  0  0  0  0  0  0  0  0  0  0
   -4.2776   10.6460    0.0000 N   0  0  0  0  0  0  0  0  0  0  0  0
   -2.8510   10.1824    0.0000 N   0  0  0  0  0  0  0  0  0  0  0  0
   -2.8510    8.6824    0.0000 N   0  0  0  0  0  0  0  0  0  0  0  0
   -1.6375    7.8008    0.0000 C   0  0  0  0  0  0  0  0  0  0  0  0
   -1.7943    6.3090    0.0000 C   0  0  0  0  0  0  0  0  0  0  0  0
   -0.5807    5.4273    0.0000 C   0  0  0  0  0  0  0  0  0  0  0  0
    0.7896    6.0374    0.0000 C   0  0  0  0  0  0  0  0  0  0  0  0
    0.9464    7.5292    0.0000 C   0  0  0  0  0  0  0  0  0  0  0  0
   -0.2671    8.4109    0.0000 C   0  0  0  0  0  0  0  0  0  0  0  0
   -6.2083    6.4805    0.0000 C   0  0  0  0  0  0  0  0  0  0  0  0
   -6.6718    5.0539    0.0000 C   0  0  0  0  0  0  0  0  0  0  0  0
   -8.1391    4.7420    0.0000 C   0  0  0  0  0  0  0  0  0  0  0  0
   -9.1428    5.8567    0.0000 C   0  0  0  0  0  0  0  0  0  0  0  0
  -10.6100    5.5448    0.0000 C   0  0  0  0  0  0  0  0  0  0  0  0
  -11.0735    4.1183    0.0000 C   0  0  0  0  0  0  0  0  0  0  0  0
  -12.5407    3.8064    0.0000 C   0  0  0  0  0  0  0  0  0  0  0  0
  -13.0043    2.3798    0.0000 O   0  0  0  0  0  0  0  0  0  0  0  0
  -13.5444    4.9211    0.0000 N   0  0  0  0  0  0  0  0  0  0  0  0
  -15.0117    4.6092    0.0000 O   0  0  0  0  0  0  0  0  0  0  0  0
  -10.0698    3.0035    0.0000 C   0  0  0  0  0  0  0  0  0  0  0  0
   -8.6026    3.3154    0.0000 C   0  0  0  0  0  0  0  0  0  0  0  0
   -0.7500    1.2990    0.0000 C   0  0  0  0  0  0  0  0  0  0  0  0
    0.7500    1.2990    0.0000 C   0  0  0  0  0  0  0  0  0  0  0  0
    1.5000    2.5981    0.0000 C   0  0  0  0  0  0  0  0  0  0  0  0
  1  2  1  0
  2  3  1  0
  3  4  2  0
  4  5  1  0
  5  6  2  0
  6  7  1  0
  7  8  2  0
  7  9  1  0
  9 10  1  0
 10 11  2  0
 11 12  1  0
 12 13  2  0
 13 14  1  0
 14 15  1  0
 15 16  2  0
 16 17  1  0
 17 18  2  0
 18 19  1  0
 19 20  2  0
 20 21  1  0
 21 22  2  0
 22 23  1  0
 23 24  1  0
 24 25  2  0
 25 26  1  0
 26 27  2  0
 27 28  1  0
 28 29  2  0
 18 30  1  0
 30 31  2  0
 31 32  1  0
 32 33  2  0
 33 34  1  0
 34 35  2  0
 35 36  1  0
 36 37  2  0
 36 38  1  0
 38 39  1  0
 35 40  1  0
 40 41  1  0
  6 42  1  0
 42 43  2  0
 43 44  1  0
 43  3  1  0
 14 10  1  0
 31 15  1  0
 41 32  1  0
 23 19  1  0
 29 24  1  0
M  END
>  <Title>  (705) 
idABBCgen7

$$$$

     RDKit          2D

 37 42  0  0  0  0  0  0  0  0999 V2000
   -3.6975    4.4273    0.0000 C   0  0  0  0  0  0  0  0  0  0  0  0
   -2.3272    3.8172    0.0000 C   0  0  0  0  0  0  0  0  0  0  0  0
   -2.0153    2.3500    0.0000 C   0  0  0  0  0  0  0  0  0  0  0  0
   -0.5235    2.1932    0.0000 C   0  0  0  0  0  0  0  0  0  0  0  0
    0.0866    3.5635    0.0000 C   0  0  0  0  0  0  0  0  0  0  0  0
    1.5538    3.8754    0.0000 C   0  0  0  0  0  0  0  0  0  0  0  0
    2.0173    5.3020    0.0000 O   0  0  0  0  0  0  0  0  0  0  0  0
    2.5575    2.7607    0.0000 N   0  0  0  0  0  0  0  0  0  0  0  0
    4.0247    3.0725    0.0000 C   0  0  0  0  0  0  0  0  0  0  0  0
    4.6348    4.4429    0.0000 N   0  0  0  0  0  0  0  0  0  0  0  0
    6.1266    4.2861    0.0000 N   0  0  0  0  0  0  0  0  0  0  0  0
    6.4385    2.8189    0.0000 N   0  0  0  0  0  0  0  0  0  0  0  0
    5.1394    2.0689    0.0000 N   0  0  0  0  0  0  0  0  0  0  0  0
    4.9826    0.5771    0.0000 C   0  0  0  0  0  0  0  0  0  0  0  0
    6.0974   -0.4266    0.0000 C   0  0  0  0  0  0  0  0  0  0  0  0
    5.4873   -1.7969    0.0000 C   0  0  0  0  0  0  0  0  0  0  0  0
    3.9955   -1.6402    0.0000 C   0  0  0  0  0  0  0  0  0  0  0  0
    2.9918   -2.7549    0.0000 C   0  0  0  0  0  0  0  0  0  0  0  0
    1.5000   -2.5981    0.0000 N   0  0  0  0  0  0  0  0  0  0  0  0
    0.8899   -3.9684    0.0000 N   0  0  0  0  0  0  0  0  0  0  0  0
    2.0046   -4.9721    0.0000 N   0  0  0  0  0  0  0  0  0  0  0  0
    3.3037   -4.2221    0.0000 N   0  0  0  0  0  0  0  0  0  0  0  0
    4.6740   -4.8322    0.0000 C   0  0  0  0  0  0  0  0  0  0  0  0
    5.8875   -3.9505    0.0000 C   0  0  0  0  0  0  0  0  0  0  0  0
    7.2578   -4.5606    0.0000 C   0  0  0  0  0  0  0  0  0  0  0  0
    7.4146   -6.0524    0.0000 C   0  0  0  0  0  0  0  0  0  0  0  0
    8.7849   -6.6625    0.0000 C   0  0  0  0  0  0  0  0  0  0  0  0
    9.9984   -5.7808    0.0000 C   0  0  0  0  0  0  0  0  0  0  0  0
   11.3688   -6.3909    0.0000 C   0  0  0  0  0  0  0  0  0  0  0  0
   11.5256   -7.8827    0.0000 C   0  0  0  0  0  0  0  0  0  0  0  0
   10.3120   -8.7644    0.0000 C   0  0  0  0  0  0  0  0  0  0  0  0
    8.9417   -8.1543    0.0000 C   0  0  0  0  0  0  0  0  0  0  0  0
    6.2011   -6.9341    0.0000 C   0  0  0  0  0  0  0  0  0  0  0  0
    4.8308   -6.3240    0.0000 C   0  0  0  0  0  0  0  0  0  0  0  0
    3.6836   -0.1729    0.0000 C   0  0  0  0  0  0  0  0  0  0  0  0
    2.3133    0.4372    0.0000 O   0  0  0  0  0  0  0  0  0  0  0  0
   -1.0281    4.5672    0.0000 C   0  0  0  0  0  0  0  0  0  0  0  0
  1  2  1  0
  2  3  2  0
  3  4  1  0
  4  5  2  0
  5  6  1  0
  6  7  2  0
  6  8  1  0
  8  9  1  0
  9 10  2  0
 10 11  1  0
 11 12  2  0
 12 13  1  0
 13 14  1  0
 14 15  2  0
 15 16  1  0
 16 17  2  0
 17 18  1  0
 18 19  2  0
 19 20  1  0
 20 21  2  0
 21 22  1  0
 22 23  1  0
 23 24  2  0
 24 25  1  0
 25 26  2  0
 26 27  1  0
 27 28  2  0
 28 29  1  0
 29 30  2  0
 30 31  1  0
 31 32  2  0
 26 33  1  0
 33 34  1  0
 17 35  1  0
 35 36  2  0
  5 37  1  0
 37  2  1  0
 13  9  1  0
 35 14  1  0
 22 18  1  0
 34 23  1  0
 32 27  1  0
M  END
>  <Title>  (706) 
idABBDgen7

$$$$

     RDKit          2D

 32 32  0  0  0  0  0  0  0  0999 V2000
   10.4486   -1.2990    0.0000 C   0  0  0  0  0  0  0  0  0  0  0  0
    8.9486   -1.2990    0.0000 C   0  0  0  0  0  0  0  0  0  0  0  0
    8.1986   -2.5981    0.0000 O   0  0  0  0  0  0  0  0  0  0  0  0
    8.1986    0.0000    0.0000 O   0  0  0  0  0  0  0  0  0  0  0  0
    6.6986    0.0000    0.0000 C   0  0  0  0  0  0  0  0  0  0  0  0
    6.5306   -1.4906    0.0000 C   0  0  0  0  0  0  0  0  0  0  0  0
    6.0352   -2.9064    0.0000 C   0  0  0  0  0  0  0  0  0  0  0  0
    5.2371   -4.1765    0.0000 C   0  0  0  0  0  0  0  0  0  0  0  0
    4.1765   -5.2371    0.0000 C   0  0  0  0  0  0  0  0  0  0  0  0
    2.9064   -6.0352    0.0000 C   0  0  0  0  0  0  0  0  0  0  0  0
    1.4906   -6.5306    0.0000 C   0  0  0  0  0  0  0  0  0  0  0  0
   -0.0000   -6.6986    0.0000 C   0  0  0  0  0  0  0  0  0  0  0  0
   -1.4906   -6.5306    0.0000 C   0  0  0  0  0  0  0  0  0  0  0  0
   -2.9064   -6.0352    0.0000 C   0  0  0  0  0  0  0  0  0  0  0  0
   -4.1765   -5.2371    0.0000 C   0  0  0  0  0  0  0  0  0  0  0  0
   -5.2371   -4.1765    0.0000 C   0  0  0  0  0  0  0  0  0  0  0  0
   -6.0352   -2.9064    0.0000 C   0  0  0  0  0  0  0  0  0  0  0  0
   -6.5306   -1.4906    0.0000 C   0  0  0  0  0  0  0  0  0  0  0  0
   -6.6986    0.0000    0.0000 C   0  0  0  0  0  0  0  0  0  0  0  0
   -6.5306    1.4906    0.0000 C   0  0  0  0  0  0  0  0  0  0  0  0
   -6.0352    2.9064    0.0000 C   0  0  0  0  0  0  0  0  0  0  0  0
   -5.2371    4.1765    0.0000 C   0  0  0  0  0  0  0  0  0  0  0  0
   -4.1765    5.2371    0.0000 C   0  0  0  0  0  0  0  0  0  0  0  0
   -2.9064    6.0352    0.0000 C   0  0  0  0  0  0  0  0  0  0  0  0
   -1.4906    6.5306    0.0000 C   0  0  0  0  0  0  0  0  0  0  0  0
    0.0000    6.6986    0.0000 C   0  0  0  0  0  0  0  0  0  0  0  0
    1.4906    6.5306    0.0000 C   0  0  0  0  0  0  0  0  0  0  0  0
    2.9064    6.0352    0.0000 C   0  0  0  0  0  0  0  0  0  0  0  0
    4.1765    5.2371    0.0000 C   0  0  0  0  0  0  0  0  0  0  0  0
    5.2371    4.1765    0.0000 C   0  0  0  0  0  0  0  0  0  0  0  0
    6.0352    2.9064    0.0000 C   0  0  0  0  0  0  0  0  0  0  0  0
    6.5306    1.4906    0.0000 C   0  0  0  0  0  0  0  0  0  0  0  0
  1  2  1  0
  2  3  2  0
  2  4  1  0
  4  5  1  0
  5  6  2  0
  6  7  1  0
  7  8  2  0
  8  9  1  0
  9 10  2  0
 10 11  1  0
 11 12  2  0
 12 13  1  0
 13 14  2  0
 14 15  1  0
 15 16  2  0
 16 17  1  0
 17 18  2  0
 18 19  1  0
 19 20  2  0
 20 21  1  0
 21 22  2  0
 22 23  1  0
 23 24  2  0
 24 25  1  0
 25 26  2  0
 26 27  1  0
 27 28  2  0
 28 29  1  0
 29 30  2  0
 30 31  1  0
 31 32  2  0
 32  5  1  0
M  END
>  <Title>  (707) 
idABBEgen7

$$$$

     RDKit          2D

  9  9  0  0  0  0  0  0  0  0999 V2000
    3.7500   -1.2990    0.0000 C   0  0  0  0  0  0  0  0  0  0  0  0
    3.0000    0.0000    0.0000 C   0  0  0  0  0  0  0  0  0  0  0  0
    1.5000    0.0000    0.0000 C   0  0  0  0  0  0  0  0  0  0  0  0
    0.7500   -1.2990    0.0000 C   0  0  0  0  0  0  0  0  0  0  0  0
   -0.7500   -1.2990    0.0000 C   0  0  0  0  0  0  0  0  0  0  0  0
   -1.5000    0.0000    0.0000 C   0  0  0  0  0  0  0  0  0  0  0  0
   -3.0000    0.0000    0.0000 F   0  0  0  0  0  0  0  0  0  0  0  0
   -0.7500    1.2990    0.0000 C   0  0  0  0  0  0  0  0  0  0  0  0
    0.7500    1.2990    0.0000 C   0  0  0  0  0  0  0  0  0  0  0  0
  1  2  1  0
  2  3  1  0
  3  4  2  0
  4  5  1  0
  5  6  2  0
  6  7  1  0
  6  8  1  0
  8  9  1  0
  9  3  1  0
M  END
>  <Title>  (708) 
idABBFgen7

$$$$

     RDKit          2D

 23 25  0  0  0  0  0  0  0  0999 V2000
   -6.0000   -5.1962    0.0000 C   0  0  0  0  0  0  0  0  0  0  0  0
   -5.2500   -3.8971    0.0000 C   0  0  0  0  0  0  0  0  0  0  0  0
   -3.7500   -3.8971    0.0000 C   0  0  0  0  0  0  0  0  0  0  0  0
   -3.0000   -2.5981    0.0000 C   0  0  0  0  0  0  0  0  0  0  0  0
   -3.7500   -1.2990    0.0000 C   0  0  0  0  0  0  0  0  0  0  0  0
   -3.0000    0.0000    0.0000 C   0  0  0  0  0  0  0  0  0  0  0  0
   -3.7500    1.2990    0.0000 C   0  0  0  0  0  0  0  0  0  0  0  0
   -5.2418    1.4558    0.0000 N   0  0  0  0  0  0  0  0  0  0  0  0
   -5.5537    2.9231    0.0000 N   0  0  0  0  0  0  0  0  0  0  0  0
   -4.2546    3.6731    0.0000 N   0  0  0  0  0  0  0  0  0  0  0  0
   -3.1399    2.6694    0.0000 N   0  0  0  0  0  0  0  0  0  0  0  0
   -1.6727    2.9812    0.0000 C   0  0  0  0  0  0  0  0  0  0  0  0
   -0.6690    1.8665    0.0000 C   0  0  0  0  0  0  0  0  0  0  0  0
    0.7982    2.1784    0.0000 C   0  0  0  0  0  0  0  0  0  0  0  0
    1.2618    3.6050    0.0000 C   0  0  0  0  0  0  0  0  0  0  0  0
    2.7290    3.9168    0.0000 C   0  0  0  0  0  0  0  0  0  0  0  0
    3.7327    2.8021    0.0000 O   0  0  0  0  0  0  0  0  0  0  0  0
    3.1925    5.3434    0.0000 N   0  0  0  0  0  0  0  0  0  0  0  0
    4.6597    5.6553    0.0000 O   0  0  0  0  0  0  0  0  0  0  0  0
    0.2581    4.7197    0.0000 C   0  0  0  0  0  0  0  0  0  0  0  0
   -1.2091    4.4078    0.0000 C   0  0  0  0  0  0  0  0  0  0  0  0
   -5.2500   -1.2990    0.0000 C   0  0  0  0  0  0  0  0  0  0  0  0
   -6.0000   -2.5981    0.0000 C   0  0  0  0  0  0  0  0  0  0  0  0
  1  2  1  0
  2  3  2  0
  3  4  1  0
  4  5  2  0
  5  6  1  0
  6  7  1  0
  7  8  2  0
  8  9  1  0
  9 10  2  0
 10 11  1  0
 11 12  1  0
 12 13  2  0
 13 14  1  0
 14 15  2  0
 15 16  1  0
 16 17  2  0
 16 18  1  0
 18 19  1  0
 15 20  1  0
 20 21  1  0
  5 22  1  0
 22 23  2  0
 23  2  1  0
 11  7  1  0
 21 12  1  0
M  END
>  <Title>  (709) 
idABBGgen7

$$$$

     RDKit          2D

 32 35  0  0  0  0  0  0  0  0999 V2000
    3.7500   -1.2990    0.0000 C   0  0  0  0  0  0  0  0  0  0  0  0
    3.0000    0.0000    0.0000 O   0  0  0  0  0  0  0  0  0  0  0  0
    1.5000    0.0000    0.0000 C   0  0  0  0  0  0  0  0  0  0  0  0
    0.7500   -1.2990    0.0000 C   0  0  0  0  0  0  0  0  0  0  0  0
   -0.7500   -1.2990    0.0000 C   0  0  0  0  0  0  0  0  0  0  0  0
   -1.5000    0.0000    0.0000 C   0  0  0  0  0  0  0  0  0  0  0  0
   -3.0000    0.0000    0.0000 C   0  0  0  0  0  0  0  0  0  0  0  0
   -3.7500   -1.2990    0.0000 O   0  0  0  0  0  0  0  0  0  0  0  0
   -3.7500    1.2990    0.0000 N   0  0  0  0  0  0  0  0  0  0  0  0
   -5.2500    1.2990    0.0000 C   0  0  0  0  0  0  0  0  0  0  0  0
   -6.0000    2.5981    0.0000 C   0  0  0  0  0  0  0  0  0  0  0  0
   -7.5000    2.5981    0.0000 C   0  0  0  0  0  0  0  0  0  0  0  0
   -8.2500    1.2990    0.0000 C   0  0  0  0  0  0  0  0  0  0  0  0
   -9.7500    1.2990    0.0000 C   0  0  0  0  0  0  0  0  0  0  0  0
  -10.5000    0.0000    0.0000 O   0  0  0  0  0  0  0  0  0  0  0  0
  -10.5000    2.5981    0.0000 N   0  0  0  0  0  0  0  0  0  0  0  0
  -12.0000    2.5981    0.0000 C   0  0  0  0  0  0  0  0  0  0  0  0
  -12.7500    3.8971    0.0000 C   0  0  0  0  0  0  0  0  0  0  0  0
  -14.2500    3.8971    0.0000 C   0  0  0  0  0  0  0  0  0  0  0  0
  -15.0000    2.5981    0.0000 C   0  0  0  0  0  0  0  0  0  0  0  0
  -16.5000    2.5981    0.0000 C   0  0  0  0  0  0  0  0  0  0  0  0
  -17.2500    3.8971    0.0000 C   0  0  0  0  0  0  0  0  0  0  0  0
  -18.7500    3.8971    0.0000 C   0  0  0  0  0  0  0  0  0  0  0  0
  -19.5000    2.5981    0.0000 C   0  0  0  0  0  0  0  0  0  0  0  0
  -18.7500    1.2990    0.0000 C   0  0  0  0  0  0  0  0  0  0  0  0
  -17.2500    1.2990    0.0000 C   0  0  0  0  0  0  0  0  0  0  0  0
  -14.2500    1.2990    0.0000 C   0  0  0  0  0  0  0  0  0  0  0  0
  -12.7500    1.2990    0.0000 C   0  0  0  0  0  0  0  0  0  0  0  0
   -7.5000    0.0000    0.0000 C   0  0  0  0  0  0  0  0  0  0  0  0
   -6.0000    0.0000    0.0000 C   0  0  0  0  0  0  0  0  0  0  0  0
   -0.7500    1.2990    0.0000 C   0  0  0  0  0  0  0  0  0  0  0  0
    0.7500    1.2990    0.0000 C   0  0  0  0  0  0  0  0  0  0  0  0
  1  2  1  0
  2  3  1  0
  3  4  2  0
  4  5  1  0
  5  6  2  0
  6  7  1  0
  7  8  2  0
  7  9  1  0
  9 10  1  0
 10 11  2  0
 11 12  1  0
 12 13  2  0
 13 14  1  0
 14 15  2  0
 14 16  1  0
 16 17  1  0
 17 18  2  0
 18 19  1  0
 19 20  2  0
 20 21  1  0
 21 22  2  0
 22 23  1  0
 23 24  2  0
 24 25  1  0
 25 26  2  0
 20 27  1  0
 27 28  2  0
 13 29  1  0
 29 30  2  0
  6 31  1  0
 31 32  2  0
 32  3  1  0
 30 10  1  0
 28 17  1  0
 26 21  1  0
M  END
>  <Title>  (710) 
idABBHgen7

$$$$

     RDKit          2D

 31 35  0  0  0  0  0  0  0  0999 V2000
    3.7500    1.2990    0.0000 C   0  0  0  0  0  0  0  0  0  0  0  0
    3.0000    0.0000    0.0000 O   0  0  0  0  0  0  0  0  0  0  0  0
    1.5000    0.0000    0.0000 C   0  0  0  0  0  0  0  0  0  0  0  0
    0.7500    1.2990    0.0000 C   0  0  0  0  0  0  0  0  0  0  0  0
   -0.7500    1.2990    0.0000 C   0  0  0  0  0  0  0  0  0  0  0  0
   -1.5000    0.0000    0.0000 C   0  0  0  0  0  0  0  0  0  0  0  0
   -3.0000    0.0000    0.0000 C   0  0  0  0  0  0  0  0  0  0  0  0
   -3.8817   -1.2135    0.0000 N   0  0  0  0  0  0  0  0  0  0  0  0
   -5.3083   -0.7500    0.0000 N   0  0  0  0  0  0  0  0  0  0  0  0
   -5.3083    0.7500    0.0000 N   0  0  0  0  0  0  0  0  0  0  0  0
   -3.8817    1.2135    0.0000 N   0  0  0  0  0  0  0  0  0  0  0  0
   -3.4182    2.6401    0.0000 C   0  0  0  0  0  0  0  0  0  0  0  0
   -1.9509    2.9520    0.0000 C   0  0  0  0  0  0  0  0  0  0  0  0
   -1.4874    4.3786    0.0000 C   0  0  0  0  0  0  0  0  0  0  0  0
   -2.4911    5.4933    0.0000 C   0  0  0  0  0  0  0  0  0  0  0  0
   -3.9583    5.1814    0.0000 C   0  0  0  0  0  0  0  0  0  0  0  0
   -4.4218    3.7548    0.0000 C   0  0  0  0  0  0  0  0  0  0  0  0
   -5.8891    3.4430    0.0000 N   0  0  0  0  0  0  0  0  0  0  0  0
   -6.4992    2.0726    0.0000 N   0  0  0  0  0  0  0  0  0  0  0  0
   -7.9910    2.2294    0.0000 N   0  0  0  0  0  0  0  0  0  0  0  0
   -8.3028    3.6967    0.0000 N   0  0  0  0  0  0  0  0  0  0  0  0
   -7.0038    4.4467    0.0000 C   0  0  0  0  0  0  0  0  0  0  0  0
   -6.8470    5.9384    0.0000 C   0  0  0  0  0  0  0  0  0  0  0  0
   -5.4767    6.5485    0.0000 C   0  0  0  0  0  0  0  0  0  0  0  0
   -5.3199    8.0403    0.0000 C   0  0  0  0  0  0  0  0  0  0  0  0
   -6.5334    8.9220    0.0000 C   0  0  0  0  0  0  0  0  0  0  0  0
   -7.9037    8.3119    0.0000 C   0  0  0  0  0  0  0  0  0  0  0  0
   -8.0605    6.8201    0.0000 C   0  0  0  0  0  0  0  0  0  0  0  0
   -0.7500   -1.2990    0.0000 C   0  0  0  0  0  0  0  0  0  0  0  0
   -1.5000   -2.5981    0.0000 O   0  0  0  0  0  0  0  0  0  0  0  0
    0.7500   -1.2990    0.0000 N   0  0  0  0  0  0  0  0  0  0  0  0
  1  2  1  0
  2  3  1  0
  3  4  2  0
  4  5  1  0
  5  6  2  0
  6  7  1  0
  7  8  2  0
  8  9  1  0
  9 10  2  0
 10 11  1  0
 11 12  1  0
 12 13  2  0
 13 14  1  0
 14 15  2  0
 15 16  1  0
 16 17  2  0
 17 18  1  0
 18 19  1  0
 19 20  2  0
 20 21  1  0
 21 22  2  0
 22 23  1  0
 23 24  2  0
 24 25  1  0
 25 26  2  0
 26 27  1  0
 27 28  2  0
  6 29  1  0
 29 30  2  0
 29 31  1  0
 31  3  1  0
 11  7  1  0
 17 12  1  0
 22 18  1  0
 28 23  1  0
M  END
>  <Title>  (711) 
idABBIgen7

$$$$

     RDKit          2D

 14 15  0  0  0  0  0  0  0  0999 V2000
    2.8449    6.6264    0.0000 C   0  0  0  0  0  0  0  0  0  0  0  0
    1.4115    6.1843    0.0000 O   0  0  0  0  0  0  0  0  0  0  0  0
    1.0777    4.7219    0.0000 C   0  0  0  0  0  0  0  0  0  0  0  0
    2.2505    3.7867    0.0000 C   0  0  0  0  0  0  0  0  0  0  0  0
    2.2505    2.2867    0.0000 C   0  0  0  0  0  0  0  0  0  0  0  0
    1.0777    1.3515    0.0000 C   0  0  0  0  0  0  0  0  0  0  0  0
    1.7286    0.0000    0.0000 C   0  0  0  0  0  0  0  0  0  0  0  0
    1.0777   -1.3515    0.0000 C   0  0  0  0  0  0  0  0  0  0  0  0
   -0.3846   -1.6852    0.0000 C   0  0  0  0  0  0  0  0  0  0  0  0
   -1.5574   -0.7500    0.0000 C   0  0  0  0  0  0  0  0  0  0  0  0
   -1.5574    0.7500    0.0000 C   0  0  0  0  0  0  0  0  0  0  0  0
   -0.3846    1.6852    0.0000 C   0  0  0  0  0  0  0  0  0  0  0  0
   -1.0355    3.0367    0.0000 C   0  0  0  0  0  0  0  0  0  0  0  0
   -0.3846    4.3881    0.0000 C   0  0  0  0  0  0  0  0  0  0  0  0
  1  2  1  0
  2  3  1  0
  3  4  2  0
  4  5  1  0
  5  6  2  0
  6  7  1  0
  7  8  2  0
  8  9  1  0
  9 10  2  0
 10 11  1  0
 11 12  2  0
 12 13  1  0
 13 14  1  0
 14  3  1  0
 12  6  1  0
M  END
>  <Title>  (712) 
idABBJgen7

$$$$

     RDKit          2D

 32 35  0  0  0  0  0  0  0  0999 V2000
   -8.2500   -6.4952    0.0000 C   0  0  0  0  0  0  0  0  0  0  0  0
   -7.5000   -5.1962    0.0000 C   0  0  0  0  0  0  0  0  0  0  0  0
   -8.2500   -3.8971    0.0000 O   0  0  0  0  0  0  0  0  0  0  0  0
   -6.0000   -5.1962    0.0000 O   0  0  0  0  0  0  0  0  0  0  0  0
   -5.2500   -3.8971    0.0000 C   0  0  0  0  0  0  0  0  0  0  0  0
   -6.0000   -2.5981    0.0000 C   0  0  0  0  0  0  0  0  0  0  0  0
   -5.2500   -1.2990    0.0000 C   0  0  0  0  0  0  0  0  0  0  0  0
   -3.7500   -1.2990    0.0000 C   0  0  0  0  0  0  0  0  0  0  0  0
   -3.0000    0.0000    0.0000 C   0  0  0  0  0  0  0  0  0  0  0  0
   -3.7500    1.2990    0.0000 C   0  0  0  0  0  0  0  0  0  0  0  0
   -5.2418    1.4558    0.0000 N   0  0  0  0  0  0  0  0  0  0  0  0
   -5.5537    2.9231    0.0000 N   0  0  0  0  0  0  0  0  0  0  0  0
   -4.2546    3.6731    0.0000 N   0  0  0  0  0  0  0  0  0  0  0  0
   -3.1399    2.6694    0.0000 N   0  0  0  0  0  0  0  0  0  0  0  0
   -1.6727    2.9812    0.0000 C   0  0  0  0  0  0  0  0  0  0  0  0
   -0.6690    1.8665    0.0000 C   0  0  0  0  0  0  0  0  0  0  0  0
    0.7982    2.1784    0.0000 C   0  0  0  0  0  0  0  0  0  0  0  0
    1.2618    3.6050    0.0000 C   0  0  0  0  0  0  0  0  0  0  0  0
    2.7290    3.9168    0.0000 N   0  0  0  0  0  0  0  0  0  0  0  0
    3.1925    5.3434    0.0000 C   0  0  0  0  0  0  0  0  0  0  0  0
    2.1888    6.4581    0.0000 O   0  0  0  0  0  0  0  0  0  0  0  0
    4.6597    5.6553    0.0000 C   0  0  0  0  0  0  0  0  0  0  0  0
    5.6634    4.5406    0.0000 C   0  0  0  0  0  0  0  0  0  0  0  0
    7.1307    4.8524    0.0000 C   0  0  0  0  0  0  0  0  0  0  0  0
    7.5942    6.2790    0.0000 C   0  0  0  0  0  0  0  0  0  0  0  0
    6.5905    7.3937    0.0000 C   0  0  0  0  0  0  0  0  0  0  0  0
    5.1233    7.0819    0.0000 C   0  0  0  0  0  0  0  0  0  0  0  0
    0.2581    4.7197    0.0000 C   0  0  0  0  0  0  0  0  0  0  0  0
   -1.2091    4.4078    0.0000 C   0  0  0  0  0  0  0  0  0  0  0  0
   -3.0000   -2.5981    0.0000 C   0  0  0  0  0  0  0  0  0  0  0  0
   -3.7500   -3.8971    0.0000 C   0  0  0  0  0  0  0  0  0  0  0  0
   -3.0000   -5.1962    0.0000 C   0  0  0  0  0  0  0  0  0  0  0  0
  1  2  1  0
  2  3  2  0
  2  4  1  0
  4  5  1  0
  5  6  2  0
  6  7  1  0
  7  8  2  0
  8  9  1  0
  9 10  1  0
 10 11  2  0
 11 12  1  0
 12 13  2  0
 13 14  1  0
 14 15  1  0
 15 16  2  0
 16 17  1  0
 17 18  2  0
 18 19  1  0
 19 20  1  0
 20 21  2  0
 20 22  1  0
 22 23  2  0
 23 24  1  0
 24 25  2  0
 25 26  1  0
 26 27  2  0
 18 28  1  0
 28 29  2  0
  8 30  1  0
 30 31  2  0
 31 32  1  0
 31  5  1  0
 14 10  1  0
 29 15  1  0
 27 22  1  0
M  END
>  <Title>  (713) 
idABBKgen7

$$$$

     RDKit          2D

 49 55  0  0  0  0  0  0  0  0999 V2000
    3.0000    2.5981    0.0000 C   0  0  0  0  0  0  0  0  0  0  0  0
    1.5000    2.5981    0.0000 C   0  0  0  0  0  0  0  0  0  0  0  0
    0.7500    3.8971    0.0000 C   0  0  0  0  0  0  0  0  0  0  0  0
   -0.7500    3.8971    0.0000 C   0  0  0  0  0  0  0  0  0  0  0  0
   -1.5000    2.5981    0.0000 C   0  0  0  0  0  0  0  0  0  0  0  0
   -3.0000    2.5981    0.0000 C   0  0  0  0  0  0  0  0  0  0  0  0
   -3.7500    3.8971    0.0000 O   0  0  0  0  0  0  0  0  0  0  0  0
   -3.7500    1.2990    0.0000 N   0  0  0  0  0  0  0  0  0  0  0  0
   -5.2500    1.2990    0.0000 C   0  0  0  0  0  0  0  0  0  0  0  0
   -6.0000    2.5981    0.0000 N   0  0  0  0  0  0  0  0  0  0  0  0
   -7.5000    2.5981    0.0000 C   0  0  0  0  0  0  0  0  0  0  0  0
   -8.2500    3.8971    0.0000 C   0  0  0  0  0  0  0  0  0  0  0  0
   -9.7500    3.8971    0.0000 O   0  0  0  0  0  0  0  0  0  0  0  0
   -7.5000    5.1962    0.0000 N   0  0  0  0  0  0  0  0  0  0  0  0
   -8.2500    6.4952    0.0000 C   0  0  0  0  0  0  0  0  0  0  0  0
   -7.5000    7.7942    0.0000 C   0  0  0  0  0  0  0  0  0  0  0  0
   -8.2500    9.0933    0.0000 C   0  0  0  0  0  0  0  0  0  0  0  0
   -9.7500    9.0933    0.0000 C   0  0  0  0  0  0  0  0  0  0  0  0
  -10.5000   10.3923    0.0000 C   0  0  0  0  0  0  0  0  0  0  0  0
   -9.7500   11.6913    0.0000 C   0  0  0  0  0  0  0  0  0  0  0  0
  -10.5000   12.9904    0.0000 C   0  0  0  0  0  0  0  0  0  0  0  0
  -12.0000   12.9904    0.0000 C   0  0  0  0  0  0  0  0  0  0  0  0
  -12.7500   11.6913    0.0000 C   0  0  0  0  0  0  0  0  0  0  0  0
  -12.0000   10.3923    0.0000 C   0  0  0  0  0  0  0  0  0  0  0  0
  -10.5000    7.7942    0.0000 C   0  0  0  0  0  0  0  0  0  0  0  0
   -9.7500    6.4952    0.0000 C   0  0  0  0  0  0  0  0  0  0  0  0
   -8.2500    1.2990    0.0000 C   0  0  0  0  0  0  0  0  0  0  0  0
   -7.5000    0.0000    0.0000 C   0  0  0  0  0  0  0  0  0  0  0  0
   -6.0000    0.0000    0.0000 C   0  0  0  0  0  0  0  0  0  0  0  0
   -5.2500   -1.2990    0.0000 C   0  0  0  0  0  0  0  0  0  0  0  0
   -6.0000   -2.5981    0.0000 C   0  0  0  0  0  0  0  0  0  0  0  0
   -5.2500   -3.8971    0.0000 C   0  0  0  0  0  0  0  0  0  0  0  0
   -3.7500   -3.8971    0.0000 C   0  0  0  0  0  0  0  0  0  0  0  0
   -3.0000   -5.1962    0.0000 C   0  0  0  0  0  0  0  0  0  0  0  0
   -1.5082   -5.3529    0.0000 N   0  0  0  0  0  0  0  0  0  0  0  0
   -1.1963   -6.8202    0.0000 N   0  0  0  0  0  0  0  0  0  0  0  0
   -2.4954   -7.5702    0.0000 N   0  0  0  0  0  0  0  0  0  0  0  0
   -3.6101   -6.5665    0.0000 N   0  0  0  0  0  0  0  0  0  0  0  0
   -5.0773   -6.8783    0.0000 C   0  0  0  0  0  0  0  0  0  0  0  0
   -6.0810   -5.7636    0.0000 C   0  0  0  0  0  0  0  0  0  0  0  0
   -7.5482   -6.0755    0.0000 C   0  0  0  0  0  0  0  0  0  0  0  0
   -8.0118   -7.5021    0.0000 C   0  0  0  0  0  0  0  0  0  0  0  0
   -7.0081   -8.6168    0.0000 C   0  0  0  0  0  0  0  0  0  0  0  0
   -5.5409   -8.3049    0.0000 C   0  0  0  0  0  0  0  0  0  0  0  0
   -3.0000   -2.5981    0.0000 C   0  0  0  0  0  0  0  0  0  0  0  0
   -3.7500   -1.2990    0.0000 C   0  0  0  0  0  0  0  0  0  0  0  0
   -0.7500    1.2990    0.0000 C   0  0  0  0  0  0  0  0  0  0  0  0
   -1.5000    0.0000    0.0000 O   0  0  0  0  0  0  0  0  0  0  0  0
    0.7500    1.2990    0.0000 N   0  0  0  0  0  0  0  0  0  0  0  0
  1  2  1  0
  2  3  2  0
  3  4  1  0
  4  5  2  0
  5  6  1  0
  6  7  2  0
  6  8  1  0
  8  9  1  0
  9 10  2  0
 10 11  1  0
 11 12  1  0
 12 13  2  0
 12 14  1  0
 14 15  1  0
 15 16  2  0
 16 17  1  0
 17 18  2  0
 18 19  1  0
 19 20  2  0
 20 21  1  0
 21 22  2  0
 22 23  1  0
 23 24  2  0
 18 25  1  0
 25 26  2  0
 11 27  2  0
 27 28  1  0
 28 29  2  0
 29 30  1  0
 30 31  2  0
 31 32  1  0
 32 33  2  0
 33 34  1  0
 34 35  2  0
 35 36  1  0
 36 37  2  0
 37 38  1  0
 38 39  1  0
 39 40  2  0
 40 41  1  0
 41 42  2  0
 42 43  1  0
 43 44  2  0
 33 45  1  0
 45 46  2  0
  5 47  1  0
 47 48  2  0
 47 49  1  0
 49  2  1  0
 29  9  1  0
 46 30  1  0
 26 15  1  0
 38 34  1  0
 44 39  1  0
 24 19  1  0
M  END
>  <Title>  (714) 
idABBLgen7

$$$$

     RDKit          2D

 55 63  0  0  0  0  0  0  0  0999 V2000
  -10.1624    4.2767    0.0000 C   0  0  0  0  0  0  0  0  0  0  0  0
   -8.9488    3.3950    0.0000 C   0  0  0  0  0  0  0  0  0  0  0  0
   -9.1056    1.9033    0.0000 C   0  0  0  0  0  0  0  0  0  0  0  0
   -7.8921    1.0216    0.0000 C   0  0  0  0  0  0  0  0  0  0  0  0
   -6.5218    1.6317    0.0000 C   0  0  0  0  0  0  0  0  0  0  0  0
   -5.3083    0.7500    0.0000 C   0  0  0  0  0  0  0  0  0  0  0  0
   -5.3083   -0.7500    0.0000 N   0  0  0  0  0  0  0  0  0  0  0  0
   -3.8817   -1.2135    0.0000 N   0  0  0  0  0  0  0  0  0  0  0  0
   -3.0000    0.0000    0.0000 N   0  0  0  0  0  0  0  0  0  0  0  0
   -3.8817    1.2135    0.0000 N   0  0  0  0  0  0  0  0  0  0  0  0
   -3.4182    2.6401    0.0000 C   0  0  0  0  0  0  0  0  0  0  0  0
   -4.2998    3.8536    0.0000 C   0  0  0  0  0  0  0  0  0  0  0  0
   -3.4182    5.0672    0.0000 N   0  0  0  0  0  0  0  0  0  0  0  0
   -1.9916    4.6036    0.0000 N   0  0  0  0  0  0  0  0  0  0  0  0
   -1.9916    3.1036    0.0000 N   0  0  0  0  0  0  0  0  0  0  0  0
   -0.7780    2.2220    0.0000 C   0  0  0  0  0  0  0  0  0  0  0  0
   -0.9348    0.7302    0.0000 C   0  0  0  0  0  0  0  0  0  0  0  0
    0.2787   -0.1515    0.0000 C   0  0  0  0  0  0  0  0  0  0  0  0
    1.6490    0.4586    0.0000 C   0  0  0  0  0  0  0  0  0  0  0  0
    2.8625   -0.4231    0.0000 C   0  0  0  0  0  0  0  0  0  0  0  0
    2.7057   -1.9149    0.0000 C   0  0  0  0  0  0  0  0  0  0  0  0
    3.9193   -2.7965    0.0000 C   0  0  0  0  0  0  0  0  0  0  0  0
    5.2896   -2.1864    0.0000 C   0  0  0  0  0  0  0  0  0  0  0  0
    6.5031   -3.0681    0.0000 C   0  0  0  0  0  0  0  0  0  0  0  0
    6.3463   -4.5599    0.0000 C   0  0  0  0  0  0  0  0  0  0  0  0
    7.5598   -5.4416    0.0000 C   0  0  0  0  0  0  0  0  0  0  0  0
    8.9302   -4.8315    0.0000 C   0  0  0  0  0  0  0  0  0  0  0  0
    9.0870   -3.3397    0.0000 C   0  0  0  0  0  0  0  0  0  0  0  0
    7.8734   -2.4580    0.0000 C   0  0  0  0  0  0  0  0  0  0  0  0
    5.4464   -0.6946    0.0000 C   0  0  0  0  0  0  0  0  0  0  0  0
    4.2329    0.1870    0.0000 C   0  0  0  0  0  0  0  0  0  0  0  0
    4.3896    1.6788    0.0000 C   0  0  0  0  0  0  0  0  0  0  0  0
    5.7600    2.2889    0.0000 C   0  0  0  0  0  0  0  0  0  0  0  0
    5.9168    3.7807    0.0000 C   0  0  0  0  0  0  0  0  0  0  0  0
    4.7032    4.6624    0.0000 C   0  0  0  0  0  0  0  0  0  0  0  0
    3.3329    4.0523    0.0000 C   0  0  0  0  0  0  0  0  0  0  0  0
    3.1761    2.5605    0.0000 C   0  0  0  0  0  0  0  0  0  0  0  0
    1.8058    1.9504    0.0000 C   0  0  0  0  0  0  0  0  0  0  0  0
    0.5923    2.8321    0.0000 C   0  0  0  0  0  0  0  0  0  0  0  0
    0.7491    4.3238    0.0000 C   0  0  0  0  0  0  0  0  0  0  0  0
    2.1194    4.9340    0.0000 C   0  0  0  0  0  0  0  0  0  0  0  0
    2.2762    6.4257    0.0000 C   0  0  0  0  0  0  0  0  0  0  0  0
    1.0627    7.3074    0.0000 N   0  0  0  0  0  0  0  0  0  0  0  0
   -0.3077    6.6973    0.0000 C   0  0  0  0  0  0  0  0  0  0  0  0
   -0.4645    5.2055    0.0000 C   0  0  0  0  0  0  0  0  0  0  0  0
   -1.8348    4.5954    0.0000 C   0  0  0  0  0  0  0  0  0  0  0  0
   -3.0483    5.4771    0.0000 C   0  0  0  0  0  0  0  0  0  0  0  0
   -4.4186    4.8670    0.0000 C   0  0  0  0  0  0  0  0  0  0  0  0
   -4.5754    3.3752    0.0000 C   0  0  0  0  0  0  0  0  0  0  0  0
   -6.0526    3.1148    0.0000 C   0  0  0  0  0  0  0  0  0  0  0  0
   -3.3619    2.4935    0.0000 C   0  0  0  0  0  0  0  0  0  0  0  0
   -3.1530    1.0081    0.0000 O   0  0  0  0  0  0  0  0  0  0  0  0
   -1.9916    3.1036    0.0000 N   0  0  0  0  0  0  0  0  0  0  0  0
   -6.3650    3.1235    0.0000 C   0  0  0  0  0  0  0  0  0  0  0  0
   -7.5785    4.0051    0.0000 C   0  0  0  0  0  0  0  0  0  0  0  0
  1  2  1  0
  2  3  2  0
  3  4  1  0
  4  5  2  0
  5  6  1  0
  6  7  2  0
  7  8  1  0
  8  9  2  0
  9 10  1  0
 10 11  1  0
 11 12  2  0
 12 13  1  0
 13 14  2  0
 14 15  1  0
 15 16  1  0
 16 17  2  0
 17 18  1  0
 18 19  2  0
 19 20  1  0
 20 21  2  0
 21 22  1  0
 22 23  2  0
 23 24  1  0
 24 25  2  0
 25 26  1  0
 26 27  2  0
 27 28  1  0
 28 29  2  0
 23 30  1  0
 30 31  2  0
 31 32  1  0
 32 33  2  0
 33 34  1  0
 34 35  2  0
 35 36  1  0
 36 37  2  0
 19 38  1  0
 38 39  2  0
 39 40  1  0
 40 41  2  0
 41 42  1  0
 42 43  2  0
 43 44  1  0
 44 45  2  0
 45 46  1  0
 46 47  2  0
 47 48  1  0
 48 49  2  0
 49 50  1  0
 49 51  1  0
 51 52  2  0
 51 53  1  0
  5 54  1  0
 54 55  2  0
 55  2  1  0
 10  6  1  0
 15 11  1  0
 39 16  1  0
 45 40  1  0
 53 46  1  0
 31 20  1  0
 37 32  1  0
 29 24  1  0
M  END
>  <Title>  (715) 
idABBMgen7

$$$$

     RDKit          2D

 31 34  0  0  0  0  0  0  0  0999 V2000
    3.7500   -1.2990    0.0000 C   0  0  0  0  0  0  0  0  0  0  0  0
    3.0000    0.0000    0.0000 O   0  0  0  0  0  0  0  0  0  0  0  0
    1.5000    0.0000    0.0000 C   0  0  0  0  0  0  0  0  0  0  0  0
    0.7500   -1.2990    0.0000 C   0  0  0  0  0  0  0  0  0  0  0  0
   -0.7500   -1.2990    0.0000 C   0  0  0  0  0  0  0  0  0  0  0  0
   -1.5000    0.0000    0.0000 C   0  0  0  0  0  0  0  0  0  0  0  0
   -3.0000    0.0000    0.0000 N   0  0  0  0  0  0  0  0  0  0  0  0
   -3.7500    1.2990    0.0000 C   0  0  0  0  0  0  0  0  0  0  0  0
   -3.0000    2.5981    0.0000 O   0  0  0  0  0  0  0  0  0  0  0  0
   -5.2500    1.2990    0.0000 C   0  0  0  0  0  0  0  0  0  0  0  0
   -6.0000    2.5981    0.0000 C   0  0  0  0  0  0  0  0  0  0  0  0
   -7.5000    2.5981    0.0000 C   0  0  0  0  0  0  0  0  0  0  0  0
   -8.2500    1.2990    0.0000 C   0  0  0  0  0  0  0  0  0  0  0  0
   -9.7500    1.2990    0.0000 C   0  0  0  0  0  0  0  0  0  0  0  0
  -10.5000    0.0000    0.0000 O   0  0  0  0  0  0  0  0  0  0  0  0
  -10.5000    2.5981    0.0000 N   0  0  0  0  0  0  0  0  0  0  0  0
  -12.0000    2.5981    0.0000 C   0  0  0  0  0  0  0  0  0  0  0  0
  -12.8817    1.3846    0.0000 N   0  0  0  0  0  0  0  0  0  0  0  0
  -14.3083    1.8481    0.0000 N   0  0  0  0  0  0  0  0  0  0  0  0
  -14.3083    3.3481    0.0000 N   0  0  0  0  0  0  0  0  0  0  0  0
  -12.8817    3.8116    0.0000 N   0  0  0  0  0  0  0  0  0  0  0  0
  -12.4182    5.2382    0.0000 C   0  0  0  0  0  0  0  0  0  0  0  0
  -10.9509    5.5501    0.0000 C   0  0  0  0  0  0  0  0  0  0  0  0
  -10.4874    6.9766    0.0000 C   0  0  0  0  0  0  0  0  0  0  0  0
  -11.4911    8.0914    0.0000 C   0  0  0  0  0  0  0  0  0  0  0  0
  -12.9583    7.7795    0.0000 C   0  0  0  0  0  0  0  0  0  0  0  0
  -13.4218    6.3529    0.0000 C   0  0  0  0  0  0  0  0  0  0  0  0
   -7.5000    0.0000    0.0000 C   0  0  0  0  0  0  0  0  0  0  0  0
   -6.0000    0.0000    0.0000 C   0  0  0  0  0  0  0  0  0  0  0  0
   -0.7500    1.2990    0.0000 C   0  0  0  0  0  0  0  0  0  0  0  0
    0.7500    1.2990    0.0000 C   0  0  0  0  0  0  0  0  0  0  0  0
  1  2  1  0
  2  3  1  0
  3  4  2  0
  4  5  1  0
  5  6  2  0
  6  7  1  0
  7  8  1  0
  8  9  2  0
  8 10  1  0
 10 11  2  0
 11 12  1  0
 12 13  2  0
 13 14  1  0
 14 15  2  0
 14 16  1  0
 16 17  1  0
 17 18  2  0
 18 19  1  0
 19 20  2  0
 20 21  1  0
 21 22  1  0
 22 23  2  0
 23 24  1  0
 24 25  2  0
 25 26  1  0
 26 27  2  0
 13 28  1  0
 28 29  2  0
  6 30  1  0
 30 31  2  0
 31  3  1  0
 29 10  1  0
 21 17  1  0
 27 22  1  0
M  END
>  <Title>  (716) 
idABBNgen7

$$$$

     RDKit          2D

 41 46  0  0  0  0  0  0  0  0999 V2000
    9.1405   -3.7127    0.0000 C   0  0  0  0  0  0  0  0  0  0  0  0
    8.3142   -2.4608    0.0000 C   0  0  0  0  0  0  0  0  0  0  0  0
    8.9851   -1.1193    0.0000 C   0  0  0  0  0  0  0  0  0  0  0  0
    8.1588    0.1326    0.0000 C   0  0  0  0  0  0  0  0  0  0  0  0
    6.6615    0.0429    0.0000 C   0  0  0  0  0  0  0  0  0  0  0  0
    5.8351    1.2947    0.0000 C   0  0  0  0  0  0  0  0  0  0  0  0
    6.5061    2.6363    0.0000 O   0  0  0  0  0  0  0  0  0  0  0  0
    4.3378    1.2050    0.0000 N   0  0  0  0  0  0  0  0  0  0  0  0
    3.5115    2.4569    0.0000 C   0  0  0  0  0  0  0  0  0  0  0  0
    4.0385    3.8613    0.0000 N   0  0  0  0  0  0  0  0  0  0  0  0
    2.8658    4.7965    0.0000 N   0  0  0  0  0  0  0  0  0  0  0  0
    1.6139    3.9701    0.0000 N   0  0  0  0  0  0  0  0  0  0  0  0
    2.0130    2.5242    0.0000 N   0  0  0  0  0  0  0  0  0  0  0  0
    1.0777    1.3515    0.0000 C   0  0  0  0  0  0  0  0  0  0  0  0
    1.7286    0.0000    0.0000 C   0  0  0  0  0  0  0  0  0  0  0  0
    1.0777   -1.3515    0.0000 C   0  0  0  0  0  0  0  0  0  0  0  0
   -0.3846   -1.6852    0.0000 N   0  0  0  0  0  0  0  0  0  0  0  0
   -1.5574   -0.7500    0.0000 N   0  0  0  0  0  0  0  0  0  0  0  0
   -1.5574    0.7500    0.0000 N   0  0  0  0  0  0  0  0  0  0  0  0
   -0.3846    1.6852    0.0000 N   0  0  0  0  0  0  0  0  0  0  0  0
   -0.7184    3.1476    0.0000 C   0  0  0  0  0  0  0  0  0  0  0  0
   -2.1518    3.5898    0.0000 C   0  0  0  0  0  0  0  0  0  0  0  0
   -2.4856    5.0522    0.0000 C   0  0  0  0  0  0  0  0  0  0  0  0
   -1.3860    6.0724    0.0000 C   0  0  0  0  0  0  0  0  0  0  0  0
   -1.7198    7.5348    0.0000 C   0  0  0  0  0  0  0  0  0  0  0  0
   -3.1531    7.9769    0.0000 C   0  0  0  0  0  0  0  0  0  0  0  0
   -3.4869    9.4393    0.0000 C   0  0  0  0  0  0  0  0  0  0  0  0
   -2.3873   10.4596    0.0000 C   0  0  0  0  0  0  0  0  0  0  0  0
   -0.9540   10.0175    0.0000 C   0  0  0  0  0  0  0  0  0  0  0  0
   -0.6202    8.5551    0.0000 C   0  0  0  0  0  0  0  0  0  0  0  0
    0.8132    8.1129    0.0000 C   0  0  0  0  0  0  0  0  0  0  0  0
    1.9127    9.1332    0.0000 C   0  0  0  0  0  0  0  0  0  0  0  0
    3.3461    8.6911    0.0000 C   0  0  0  0  0  0  0  0  0  0  0  0
    3.6799    7.2287    0.0000 C   0  0  0  0  0  0  0  0  0  0  0  0
    2.5803    6.2084    0.0000 C   0  0  0  0  0  0  0  0  0  0  0  0
    1.1469    6.6505    0.0000 C   0  0  0  0  0  0  0  0  0  0  0  0
    0.0474    5.6303    0.0000 C   0  0  0  0  0  0  0  0  0  0  0  0
    0.3812    4.1679    0.0000 C   0  0  0  0  0  0  0  0  0  0  0  0
    5.9905   -1.2987    0.0000 C   0  0  0  0  0  0  0  0  0  0  0  0
    4.4932   -1.3884    0.0000 O   0  0  0  0  0  0  0  0  0  0  0  0
    6.8169   -2.5505    0.0000 N   0  0  0  0  0  0  0  0  0  0  0  0
  1  2  1  0
  2  3  2  0
  3  4  1  0
  4  5  2  0
  5  6  1  0
  6  7  2  0
  6  8  1  0
  8  9  1  0
  9 10  2  0
 10 11  1  0
 11 12  2  0
 12 13  1  0
 13 14  1  0
 14 15  2  0
 15 16  1  0
 16 17  2  0
 17 18  1  0
 18 19  2  0
 19 20  1  0
 20 21  1  0
 21 22  2  0
 22 23  1  0
 23 24  2  0
 24 25  1  0
 25 26  2  0
 26 27  1  0
 27 28  2  0
 28 29  1  0
 29 30  2  0
 30 31  1  0
 31 32  2  0
 32 33  1  0
 33 34  2  0
 34 35  1  0
 35 36  2  0
 24 37  1  0
 37 38  2  0
  5 39  1  0
 39 40  2  0
 39 41  1  0
 41  2  1  0
 13  9  1  0
 20 14  1  0
 38 21  1  0
 30 25  1  0
 36 31  1  0
M  END
>  <Title>  (717) 
idABBOgen7

$$$$

     RDKit          2D

 43 49  0  0  0  0  0  0  0  0999 V2000
  -11.0204   -0.6389    0.0000 C   0  0  0  0  0  0  0  0  0  0  0  0
   -9.8618    0.3137    0.0000 C   0  0  0  0  0  0  0  0  0  0  0  0
  -10.1075    1.7935    0.0000 C   0  0  0  0  0  0  0  0  0  0  0  0
   -8.9489    2.7461    0.0000 C   0  0  0  0  0  0  0  0  0  0  0  0
   -7.5446    2.2191    0.0000 C   0  0  0  0  0  0  0  0  0  0  0  0
   -6.3859    3.1718    0.0000 C   0  0  0  0  0  0  0  0  0  0  0  0
   -4.9816    2.6447    0.0000 C   0  0  0  0  0  0  0  0  0  0  0  0
   -3.8230    3.5974    0.0000 C   0  0  0  0  0  0  0  0  0  0  0  0
   -2.4186    3.0703    0.0000 C   0  0  0  0  0  0  0  0  0  0  0  0
   -1.3344    4.1069    0.0000 C   0  0  0  0  0  0  0  0  0  0  0  0
    0.1520    3.9056    0.0000 C   0  0  0  0  0  0  0  0  0  0  0  0
    0.9214    2.6179    0.0000 C   0  0  0  0  0  0  0  0  0  0  0  0
    2.4153    2.7523    0.0000 C   0  0  0  0  0  0  0  0  0  0  0  0
    3.2787    1.5258    0.0000 C   0  0  0  0  0  0  0  0  0  0  0  0
    4.7727    1.6602    0.0000 C   0  0  0  0  0  0  0  0  0  0  0  0
    5.4032    3.0213    0.0000 C   0  0  0  0  0  0  0  0  0  0  0  0
    4.5398    4.2478    0.0000 C   0  0  0  0  0  0  0  0  0  0  0  0
    3.0459    4.1134    0.0000 C   0  0  0  0  0  0  0  0  0  0  0  0
    0.3943    1.2135    0.0000 C   0  0  0  0  0  0  0  0  0  0  0  0
    1.2760    0.0000    0.0000 N   0  0  0  0  0  0  0  0  0  0  0  0
    0.3943   -1.2135    0.0000 N   0  0  0  0  0  0  0  0  0  0  0  0
   -1.0323   -0.7500    0.0000 N   0  0  0  0  0  0  0  0  0  0  0  0
   -1.0323    0.7500    0.0000 N   0  0  0  0  0  0  0  0  0  0  0  0
   -2.2841    1.5763    0.0000 C   0  0  0  0  0  0  0  0  0  0  0  0
   -3.5718    0.8070    0.0000 O   0  0  0  0  0  0  0  0  0  0  0  0
   -4.0687    5.0771    0.0000 C   0  0  0  0  0  0  0  0  0  0  0  0
   -5.4730    5.6042    0.0000 C   0  0  0  0  0  0  0  0  0  0  0  0
   -6.6317    4.6515    0.0000 C   0  0  0  0  0  0  0  0  0  0  0  0
   -8.0360    5.1786    0.0000 N   0  0  0  0  0  0  0  0  0  0  0  0
   -9.2879    4.3522    0.0000 N   0  0  0  0  0  0  0  0  0  0  0  0
  -10.4606    5.2874    0.0000 N   0  0  0  0  0  0  0  0  0  0  0  0
   -9.9336    6.6918    0.0000 N   0  0  0  0  0  0  0  0  0  0  0  0
   -8.4351    6.6245    0.0000 C   0  0  0  0  0  0  0  0  0  0  0  0
   -7.4998    7.7972    0.0000 C   0  0  0  0  0  0  0  0  0  0  0  0
   -6.0166    7.5737    0.0000 C   0  0  0  0  0  0  0  0  0  0  0  0
   -5.0814    8.7464    0.0000 C   0  0  0  0  0  0  0  0  0  0  0  0
   -5.6294   10.1427    0.0000 C   0  0  0  0  0  0  0  0  0  0  0  0
   -4.6941   11.3155    0.0000 C   0  0  0  0  0  0  0  0  0  0  0  0
   -7.1126   10.3663    0.0000 N   0  0  0  0  0  0  0  0  0  0  0  0
   -8.0478    9.1936    0.0000 C   0  0  0  0  0  0  0  0  0  0  0  0
   -9.5311    9.4171    0.0000 O   0  0  0  0  0  0  0  0  0  0  0  0
   -7.2988    0.7393    0.0000 C   0  0  0  0  0  0  0  0  0  0  0  0
   -8.4575   -0.2133    0.0000 C   0  0  0  0  0  0  0  0  0  0  0  0
  1  2  1  0
  2  3  2  0
  3  4  1  0
  4  5  2  0
  5  6  1  0
  6  7  2  0
  7  8  1  0
  8  9  1  0
  9 10  2  0
 10 11  1  0
 11 12  2  0
 12 13  1  0
 13 14  2  0
 14 15  1  0
 15 16  2  0
 16 17  1  0
 17 18  2  0
 12 19  1  0
 19 20  2  0
 20 21  1  0
 21 22  2  0
 22 23  1  0
 23 24  1  0
 24 25  2  0
  8 26  2  0
 26 27  1  0
 27 28  2  0
 28 29  1  0
 29 30  1  0
 30 31  2  0
 31 32  1  0
 32 33  2  0
 33 34  1  0
 34 35  2  0
 35 36  1  0
 36 37  2  0
 37 38  1  0
 37 39  1  0
 39 40  1  0
 40 41  2  0
  5 42  1  0
 42 43  2  0
 43  2  1  0
 28  6  1  0
 33 29  1  0
 40 34  1  0
 24  9  1  0
 18 13  1  0
 23 19  1  0
M  END
>  <Title>  (718) 
idABBPgen7

$$$$

     RDKit          2D

 26 28  0  0  0  0  0  0  0  0999 V2000
    3.0000    0.0000    0.0000 C   0  0  0  0  0  0  0  0  0  0  0  0
    1.5000    0.0000    0.0000 C   0  0  0  0  0  0  0  0  0  0  0  0
    0.7500   -1.2990    0.0000 C   0  0  0  0  0  0  0  0  0  0  0  0
   -0.7500   -1.2990    0.0000 C   0  0  0  0  0  0  0  0  0  0  0  0
   -1.5000    0.0000    0.0000 C   0  0  0  0  0  0  0  0  0  0  0  0
   -3.0000    0.0000    0.0000 N   0  0  0  0  0  0  0  0  0  0  0  0
   -3.7500    1.2990    0.0000 C   0  0  0  0  0  0  0  0  0  0  0  0
   -3.0000    2.5981    0.0000 O   0  0  0  0  0  0  0  0  0  0  0  0
   -5.2500    1.2990    0.0000 C   0  0  0  0  0  0  0  0  0  0  0  0
   -6.1317    0.0855    0.0000 N   0  0  0  0  0  0  0  0  0  0  0  0
   -7.5583    0.5490    0.0000 N   0  0  0  0  0  0  0  0  0  0  0  0
   -7.5583    2.0490    0.0000 N   0  0  0  0  0  0  0  0  0  0  0  0
   -6.1317    2.5126    0.0000 N   0  0  0  0  0  0  0  0  0  0  0  0
   -5.6682    3.9391    0.0000 C   0  0  0  0  0  0  0  0  0  0  0  0
   -4.2009    4.2510    0.0000 C   0  0  0  0  0  0  0  0  0  0  0  0
   -3.7374    5.6776    0.0000 C   0  0  0  0  0  0  0  0  0  0  0  0
   -4.7411    6.7923    0.0000 C   0  0  0  0  0  0  0  0  0  0  0  0
   -4.2776    8.2189    0.0000 C   0  0  0  0  0  0  0  0  0  0  0  0
   -5.2813    9.3336    0.0000 O   0  0  0  0  0  0  0  0  0  0  0  0
   -2.8104    8.5308    0.0000 N   0  0  0  0  0  0  0  0  0  0  0  0
   -2.3468    9.9574    0.0000 O   0  0  0  0  0  0  0  0  0  0  0  0
   -6.2083    6.4805    0.0000 C   0  0  0  0  0  0  0  0  0  0  0  0
   -6.6718    5.0539    0.0000 C   0  0  0  0  0  0  0  0  0  0  0  0
   -0.7500    1.2990    0.0000 C   0  0  0  0  0  0  0  0  0  0  0  0
   -1.5000    2.5981    0.0000 O   0  0  0  0  0  0  0  0  0  0  0  0
    0.7500    1.2990    0.0000 N   0  0  0  0  0  0  0  0  0  0  0  0
  1  2  1  0
  2  3  2  0
  3  4  1  0
  4  5  2  0
  5  6  1  0
  6  7  1  0
  7  8  2  0
  7  9  1  0
  9 10  2  0
 10 11  1  0
 11 12  2  0
 12 13  1  0
 13 14  1  0
 14 15  2  0
 15 16  1  0
 16 17  2  0
 17 18  1  0
 18 19  2  0
 18 20  1  0
 20 21  1  0
 17 22  1  0
 22 23  1  0
  5 24  1  0
 24 25  2  0
 24 26  1  0
 26  2  1  0
 13  9  1  0
 23 14  1  0
M  END
>  <Title>  (719) 
idABBQgen7

$$$$

     RDKit          2D

 33 33  0  0  0  0  0  0  0  0999 V2000
    9.1517    0.0000    0.0000 C   0  0  0  0  0  0  0  0  0  0  0  0
    7.6517    0.0000    0.0000 C   0  0  0  0  0  0  0  0  0  0  0  0
    7.5047   -1.4928    0.0000 C   0  0  0  0  0  0  0  0  0  0  0  0
    7.0693   -2.9282    0.0000 C   0  0  0  0  0  0  0  0  0  0  0  0
    6.3622   -4.2511    0.0000 C   0  0  0  0  0  0  0  0  0  0  0  0
    5.4106   -5.4106    0.0000 C   0  0  0  0  0  0  0  0  0  0  0  0
    4.2511   -6.3622    0.0000 C   0  0  0  0  0  0  0  0  0  0  0  0
    2.9282   -7.0693    0.0000 C   0  0  0  0  0  0  0  0  0  0  0  0
    1.4928   -7.5047    0.0000 C   0  0  0  0  0  0  0  0  0  0  0  0
   -0.0000   -7.6517    0.0000 C   0  0  0  0  0  0  0  0  0  0  0  0
   -1.4928   -7.5047    0.0000 C   0  0  0  0  0  0  0  0  0  0  0  0
   -2.9282   -7.0693    0.0000 C   0  0  0  0  0  0  0  0  0  0  0  0
   -4.2511   -6.3622    0.0000 C   0  0  0  0  0  0  0  0  0  0  0  0
   -5.4106   -5.4106    0.0000 C   0  0  0  0  0  0  0  0  0  0  0  0
   -6.3622   -4.2511    0.0000 C   0  0  0  0  0  0  0  0  0  0  0  0
   -7.0693   -2.9282    0.0000 C   0  0  0  0  0  0  0  0  0  0  0  0
   -7.5047   -1.4928    0.0000 C   0  0  0  0  0  0  0  0  0  0  0  0
   -7.6517    0.0000    0.0000 C   0  0  0  0  0  0  0  0  0  0  0  0
   -7.5047    1.4928    0.0000 C   0  0  0  0  0  0  0  0  0  0  0  0
   -7.0693    2.9282    0.0000 C   0  0  0  0  0  0  0  0  0  0  0  0
   -6.3622    4.2511    0.0000 C   0  0  0  0  0  0  0  0  0  0  0  0
   -5.4106    5.4106    0.0000 C   0  0  0  0  0  0  0  0  0  0  0  0
   -4.2511    6.3622    0.0000 C   0  0  0  0  0  0  0  0  0  0  0  0
   -2.9282    7.0693    0.0000 C   0  0  0  0  0  0  0  0  0  0  0  0
   -1.4928    7.5047    0.0000 C   0  0  0  0  0  0  0  0  0  0  0  0
    0.0000    7.6517    0.0000 C   0  0  0  0  0  0  0  0  0  0  0  0
    1.4928    7.5047    0.0000 C   0  0  0  0  0  0  0  0  0  0  0  0
    2.9282    7.0693    0.0000 C   0  0  0  0  0  0  0  0  0  0  0  0
    4.2511    6.3622    0.0000 C   0  0  0  0  0  0  0  0  0  0  0  0
    5.4106    5.4106    0.0000 C   0  0  0  0  0  0  0  0  0  0  0  0
    6.3622    4.2511    0.0000 C   0  0  0  0  0  0  0  0  0  0  0  0
    7.0693    2.9282    0.0000 C   0  0  0  0  0  0  0  0  0  0  0  0
    7.5047    1.4928    0.0000 C   0  0  0  0  0  0  0  0  0  0  0  0
  1  2  1  0
  2  3  2  0
  3  4  1  0
  4  5  2  0
  5  6  1  0
  6  7  2  0
  7  8  1  0
  8  9  2  0
  9 10  1  0
 10 11  2  0
 11 12  1  0
 12 13  2  0
 13 14  1  0
 14 15  2  0
 15 16  1  0
 16 17  2  0
 17 18  1  0
 18 19  2  0
 19 20  1  0
 20 21  2  0
 21 22  1  0
 22 23  2  0
 23 24  1  0
 24 25  2  0
 25 26  1  0
 26 27  2  0
 27 28  1  0
 28 29  2  0
 29 30  1  0
 30 31  2  0
 31 32  1  0
 32 33  2  0
 33  2  1  0
M  END
>  <Title>  (720) 
idABBRgen7

$$$$

     RDKit          2D

 23 25  0  0  0  0  0  0  0  0999 V2000
    3.0000    0.0000    0.0000 C   0  0  0  0  0  0  0  0  0  0  0  0
    1.5000    0.0000    0.0000 C   0  0  0  0  0  0  0  0  0  0  0  0
    0.7500   -1.2990    0.0000 C   0  0  0  0  0  0  0  0  0  0  0  0
   -0.7500   -1.2990    0.0000 C   0  0  0  0  0  0  0  0  0  0  0  0
   -1.5000    0.0000    0.0000 C   0  0  0  0  0  0  0  0  0  0  0  0
   -3.0000    0.0000    0.0000 N   0  0  0  0  0  0  0  0  0  0  0  0
   -3.8817   -1.2135    0.0000 N   0  0  0  0  0  0  0  0  0  0  0  0
   -5.3083   -0.7500    0.0000 N   0  0  0  0  0  0  0  0  0  0  0  0
   -5.3083    0.7500    0.0000 N   0  0  0  0  0  0  0  0  0  0  0  0
   -3.8817    1.2135    0.0000 C   0  0  0  0  0  0  0  0  0  0  0  0
   -3.4182    2.6401    0.0000 N   0  0  0  0  0  0  0  0  0  0  0  0
   -4.4218    3.7548    0.0000 C   0  0  0  0  0  0  0  0  0  0  0  0
   -5.8891    3.4430    0.0000 O   0  0  0  0  0  0  0  0  0  0  0  0
   -3.9583    5.1814    0.0000 C   0  0  0  0  0  0  0  0  0  0  0  0
   -2.4911    5.4933    0.0000 C   0  0  0  0  0  0  0  0  0  0  0  0
   -2.0276    6.9199    0.0000 C   0  0  0  0  0  0  0  0  0  0  0  0
   -3.0313    8.0346    0.0000 C   0  0  0  0  0  0  0  0  0  0  0  0
   -2.5677    9.4612    0.0000 C   0  0  0  0  0  0  0  0  0  0  0  0
   -4.4985    7.7227    0.0000 N   0  0  0  0  0  0  0  0  0  0  0  0
   -4.9620    6.2961    0.0000 C   0  0  0  0  0  0  0  0  0  0  0  0
   -6.4292    5.9843    0.0000 O   0  0  0  0  0  0  0  0  0  0  0  0
   -0.7500    1.2990    0.0000 C   0  0  0  0  0  0  0  0  0  0  0  0
    0.7500    1.2990    0.0000 C   0  0  0  0  0  0  0  0  0  0  0  0
  1  2  1  0
  2  3  2  0
  3  4  1  0
  4  5  2  0
  5  6  1  0
  6  7  1  0
  7  8  2  0
  8  9  1  0
  9 10  2  0
 10 11  1  0
 11 12  1  0
 12 13  2  0
 12 14  1  0
 14 15  2  0
 15 16  1  0
 16 17  2  0
 17 18  1  0
 17 19  1  0
 19 20  1  0
 20 21  2  0
  5 22  1  0
 22 23  1  0
 23  2  1  0
 10  6  1  0
 20 14  1  0
M  END
>  <Title>  (721) 
idABBSgen7

$$$$

     RDKit          2D

 15 16  0  0  0  0  0  0  0  0999 V2000
    3.7500   -1.2990    0.0000 C   0  0  0  0  0  0  0  0  0  0  0  0
    3.0000    0.0000    0.0000 O   0  0  0  0  0  0  0  0  0  0  0  0
    1.5000    0.0000    0.0000 C   0  0  0  0  0  0  0  0  0  0  0  0
    0.7500   -1.2990    0.0000 C   0  0  0  0  0  0  0  0  0  0  0  0
   -0.7500   -1.2990    0.0000 C   0  0  0  0  0  0  0  0  0  0  0  0
   -1.5000    0.0000    0.0000 C   0  0  0  0  0  0  0  0  0  0  0  0
   -3.0000    0.0000    0.0000 N   0  0  0  0  0  0  0  0  0  0  0  0
   -3.8817   -1.2135    0.0000 N   0  0  0  0  0  0  0  0  0  0  0  0
   -5.3083   -0.7500    0.0000 N   0  0  0  0  0  0  0  0  0  0  0  0
   -5.3083    0.7500    0.0000 N   0  0  0  0  0  0  0  0  0  0  0  0
   -3.8817    1.2135    0.0000 C   0  0  0  0  0  0  0  0  0  0  0  0
   -3.4182    2.6401    0.0000 C   0  0  0  0  0  0  0  0  0  0  0  0
   -4.4218    3.7548    0.0000 O   0  0  0  0  0  0  0  0  0  0  0  0
   -0.7500    1.2990    0.0000 C   0  0  0  0  0  0  0  0  0  0  0  0
    0.7500    1.2990    0.0000 C   0  0  0  0  0  0  0  0  0  0  0  0
  1  2  1  0
  2  3  1  0
  3  4  2  0
  4  5  1  0
  5  6  2  0
  6  7  1  0
  7  8  1  0
  8  9  2  0
  9 10  1  0
 10 11  2  0
 11 12  1  0
 12 13  1  0
  6 14  1  0
 14 15  2  0
 15  3  1  0
 11  7  1  0
M  END
>  <Title>  (722) 
idABBTgen7

$$$$

     RDKit          2D

 57 65  0  0  0  0  0  0  0  0999 V2000
    3.0000    0.0000    0.0000 C   0  0  0  0  0  0  0  0  0  0  0  0
    1.5000    0.0000    0.0000 C   0  0  0  0  0  0  0  0  0  0  0  0
    0.7500   -1.2990    0.0000 C   0  0  0  0  0  0  0  0  0  0  0  0
   -0.7500   -1.2990    0.0000 C   0  0  0  0  0  0  0  0  0  0  0  0
   -1.5000    0.0000    0.0000 C   0  0  0  0  0  0  0  0  0  0  0  0
   -3.0000    0.0000    0.0000 C   0  0  0  0  0  0  0  0  0  0  0  0
   -3.7500   -1.2990    0.0000 O   0  0  0  0  0  0  0  0  0  0  0  0
   -3.7500    1.2990    0.0000 N   0  0  0  0  0  0  0  0  0  0  0  0
   -5.2500    1.2990    0.0000 C   0  0  0  0  0  0  0  0  0  0  0  0
   -6.1317    0.0855    0.0000 N   0  0  0  0  0  0  0  0  0  0  0  0
   -7.5583    0.5490    0.0000 N   0  0  0  0  0  0  0  0  0  0  0  0
   -7.5583    2.0490    0.0000 N   0  0  0  0  0  0  0  0  0  0  0  0
   -6.1317    2.5126    0.0000 N   0  0  0  0  0  0  0  0  0  0  0  0
   -5.6682    3.9391    0.0000 C   0  0  0  0  0  0  0  0  0  0  0  0
   -4.2009    4.2510    0.0000 C   0  0  0  0  0  0  0  0  0  0  0  0
   -3.7374    5.6776    0.0000 C   0  0  0  0  0  0  0  0  0  0  0  0
   -4.7411    6.7923    0.0000 C   0  0  0  0  0  0  0  0  0  0  0  0
   -4.2776    8.2189    0.0000 C   0  0  0  0  0  0  0  0  0  0  0  0
   -5.1593    9.4324    0.0000 N   0  0  0  0  0  0  0  0  0  0  0  0
   -4.2776   10.6460    0.0000 N   0  0  0  0  0  0  0  0  0  0  0  0
   -2.8510   10.1824    0.0000 N   0  0  0  0  0  0  0  0  0  0  0  0
   -2.8510    8.6824    0.0000 N   0  0  0  0  0  0  0  0  0  0  0  0
   -1.6375    7.8008    0.0000 C   0  0  0  0  0  0  0  0  0  0  0  0
   -1.7943    6.3090    0.0000 C   0  0  0  0  0  0  0  0  0  0  0  0
   -0.5807    5.4273    0.0000 C   0  0  0  0  0  0  0  0  0  0  0  0
    0.7896    6.0374    0.0000 C   0  0  0  0  0  0  0  0  0  0  0  0
    2.0031    5.1557    0.0000 C   0  0  0  0  0  0  0  0  0  0  0  0
    1.8463    3.6639    0.0000 C   0  0  0  0  0  0  0  0  0  0  0  0
    3.0598    2.7823    0.0000 C   0  0  0  0  0  0  0  0  0  0  0  0
    4.4302    3.3924    0.0000 C   0  0  0  0  0  0  0  0  0  0  0  0
    4.5870    4.8841    0.0000 C   0  0  0  0  0  0  0  0  0  0  0  0
    3.3734    5.7658    0.0000 C   0  0  0  0  0  0  0  0  0  0  0  0
    3.5302    7.2576    0.0000 C   0  0  0  0  0  0  0  0  0  0  0  0
    4.9005    7.8677    0.0000 C   0  0  0  0  0  0  0  0  0  0  0  0
    5.0573    9.3595    0.0000 C   0  0  0  0  0  0  0  0  0  0  0  0
    3.8438   10.2412    0.0000 C   0  0  0  0  0  0  0  0  0  0  0  0
    2.4735    9.6311    0.0000 C   0  0  0  0  0  0  0  0  0  0  0  0
    2.3167    8.1393    0.0000 C   0  0  0  0  0  0  0  0  0  0  0  0
    0.9464    7.5292    0.0000 C   0  0  0  0  0  0  0  0  0  0  0  0
   -0.2671    8.4109    0.0000 C   0  0  0  0  0  0  0  0  0  0  0  0
   -0.1104    9.9026    0.0000 C   0  0  0  0  0  0  0  0  0  0  0  0
    1.2600   10.5127    0.0000 C   0  0  0  0  0  0  0  0  0  0  0  0
    1.4168   12.0045    0.0000 C   0  0  0  0  0  0  0  0  0  0  0  0
    0.2032   12.8862    0.0000 C   0  0  0  0  0  0  0  0  0  0  0  0
   -1.1671   12.2761    0.0000 C   0  0  0  0  0  0  0  0  0  0  0  0
   -1.3239   10.7843    0.0000 C   0  0  0  0  0  0  0  0  0  0  0  0
   -2.6942   10.1742    0.0000 C   0  0  0  0  0  0  0  0  0  0  0  0
   -3.9077   11.0559    0.0000 C   0  0  0  0  0  0  0  0  0  0  0  0
   -5.2780   10.4458    0.0000 C   0  0  0  0  0  0  0  0  0  0  0  0
   -5.4348    8.9540    0.0000 C   0  0  0  0  0  0  0  0  0  0  0  0
   -4.2213    8.0723    0.0000 C   0  0  0  0  0  0  0  0  0  0  0  0
   -2.8510    8.6824    0.0000 C   0  0  0  0  0  0  0  0  0  0  0  0
   -6.2083    6.4805    0.0000 C   0  0  0  0  0  0  0  0  0  0  0  0
   -6.6718    5.0539    0.0000 C   0  0  0  0  0  0  0  0  0  0  0  0
   -0.7500    1.2990    0.0000 C   0  0  0  0  0  0  0  0  0  0  0  0
   -1.5000    2.5981    0.0000 O   0  0  0  0  0  0  0  0  0  0  0  0
    0.7500    1.2990    0.0000 N   0  0  0  0  0  0  0  0  0  0  0  0
  1  2  1  0
  2  3  2  0
  3  4  1  0
  4  5  2  0
  5  6  1  0
  6  7  2  0
  6  8  1  0
  8  9  1  0
  9 10  2  0
 10 11  1  0
 11 12  2  0
 12 13  1  0
 13 14  1  0
 14 15  2  0
 15 16  1  0
 16 17  2  0
 17 18  1  0
 18 19  2  0
 19 20  1  0
 20 21  2  0
 21 22  1  0
 22 23  1  0
 23 24  2  0
 24 25  1  0
 25 26  2  0
 26 27  1  0
 27 28  2  0
 28 29  1  0
 29 30  2  0
 30 31  1  0
 31 32  2  0
 32 33  1  0
 33 34  2  0
 34 35  1  0
 35 36  2  0
 36 37  1  0
 37 38  2  0
 26 39  1  0
 39 40  2  0
 40 41  1  0
 41 42  2  0
 42 43  1  0
 43 44  2  0
 44 45  1  0
 45 46  2  0
 46 47  1  0
 47 48  2  0
 48 49  1  0
 49 50  2  0
 50 51  1  0
 51 52  2  0
 17 53  1  0
 53 54  2  0
  5 55  1  0
 55 56  2  0
 55 57  1  0
 57  2  1  0
 13  9  1  0
 54 14  1  0
 22 18  1  0
 40 23  1  0
 46 41  1  0
 52 47  1  0
 32 27  1  0
 38 33  1  0
M  END
>  <Title>  (723) 
idABBUgen7

$$$$

     RDKit          2D

 23 26  0  0  0  0  0  0  0  0999 V2000
    1.5000    0.0000    0.0000 C   0  0  0  0  0  0  0  0  0  0  0  0
    0.7500   -1.2990    0.0000 C   0  0  0  0  0  0  0  0  0  0  0  0
   -0.7500   -1.2990    0.0000 C   0  0  0  0  0  0  0  0  0  0  0  0
   -1.5000    0.0000    0.0000 C   0  0  0  0  0  0  0  0  0  0  0  0
   -3.0000    0.0000    0.0000 C   0  0  0  0  0  0  0  0  0  0  0  0
   -3.7500    1.2990    0.0000 C   0  0  0  0  0  0  0  0  0  0  0  0
   -5.2500    1.2990    0.0000 C   0  0  0  0  0  0  0  0  0  0  0  0
   -6.0000    0.0000    0.0000 C   0  0  0  0  0  0  0  0  0  0  0  0
   -7.5000    0.0000    0.0000 C   0  0  0  0  0  0  0  0  0  0  0  0
   -8.3817   -1.2135    0.0000 N   0  0  0  0  0  0  0  0  0  0  0  0
   -9.8083   -0.7500    0.0000 N   0  0  0  0  0  0  0  0  0  0  0  0
   -9.8083    0.7500    0.0000 N   0  0  0  0  0  0  0  0  0  0  0  0
   -8.3817    1.2135    0.0000 N   0  0  0  0  0  0  0  0  0  0  0  0
   -7.9182    2.6401    0.0000 C   0  0  0  0  0  0  0  0  0  0  0  0
   -6.4509    2.9520    0.0000 C   0  0  0  0  0  0  0  0  0  0  0  0
   -5.9874    4.3786    0.0000 C   0  0  0  0  0  0  0  0  0  0  0  0
   -6.9911    5.4933    0.0000 C   0  0  0  0  0  0  0  0  0  0  0  0
   -8.4583    5.1814    0.0000 C   0  0  0  0  0  0  0  0  0  0  0  0
   -8.9218    3.7548    0.0000 C   0  0  0  0  0  0  0  0  0  0  0  0
   -5.2500   -1.2990    0.0000 C   0  0  0  0  0  0  0  0  0  0  0  0
   -3.7500   -1.2990    0.0000 C   0  0  0  0  0  0  0  0  0  0  0  0
   -0.7500    1.2990    0.0000 C   0  0  0  0  0  0  0  0  0  0  0  0
    0.7500    1.2990    0.0000 C   0  0  0  0  0  0  0  0  0  0  0  0
  1  2  2  0
  2  3  1  0
  3  4  2  0
  4  5  1  0
  5  6  2  0
  6  7  1  0
  7  8  2  0
  8  9  1  0
  9 10  2  0
 10 11  1  0
 11 12  2  0
 12 13  1  0
 13 14  1  0
 14 15  2  0
 15 16  1  0
 16 17  2  0
 17 18  1  0
 18 19  2  0
  8 20  1  0
 20 21  2  0
  4 22  1  0
 22 23  2  0
 23  1  1  0
 21  5  1  0
 13  9  1  0
 19 14  1  0
M  END
>  <Title>  (724) 
idABBVgen7

$$$$

     RDKit          2D

 17 18  0  0  0  0  0  0  0  0999 V2000
    3.0000    0.0000    0.0000 C   0  0  0  0  0  0  0  0  0  0  0  0
    1.5000    0.0000    0.0000 C   0  0  0  0  0  0  0  0  0  0  0  0
    0.7500   -1.2990    0.0000 C   0  0  0  0  0  0  0  0  0  0  0  0
   -0.7500   -1.2990    0.0000 C   0  0  0  0  0  0  0  0  0  0  0  0
   -1.5000    0.0000    0.0000 C   0  0  0  0  0  0  0  0  0  0  0  0
   -3.0000    0.0000    0.0000 N   0  0  0  0  0  0  0  0  0  0  0  0
   -3.8817   -1.2135    0.0000 C   0  0  0  0  0  0  0  0  0  0  0  0
   -5.3083   -0.7500    0.0000 C   0  0  0  0  0  0  0  0  0  0  0  0
   -5.3083    0.7500    0.0000 C   0  0  0  0  0  0  0  0  0  0  0  0
   -6.5218    1.6317    0.0000 C   0  0  0  0  0  0  0  0  0  0  0  0
   -7.8921    1.0216    0.0000 O   0  0  0  0  0  0  0  0  0  0  0  0
   -6.3650    3.1235    0.0000 N   0  0  0  0  0  0  0  0  0  0  0  0
   -7.5785    4.0051    0.0000 O   0  0  0  0  0  0  0  0  0  0  0  0
   -3.8817    1.2135    0.0000 C   0  0  0  0  0  0  0  0  0  0  0  0
   -3.4182    2.6401    0.0000 O   0  0  0  0  0  0  0  0  0  0  0  0
   -0.7500    1.2990    0.0000 C   0  0  0  0  0  0  0  0  0  0  0  0
    0.7500    1.2990    0.0000 C   0  0  0  0  0  0  0  0  0  0  0  0
  1  2  1  0
  2  3  2  0
  3  4  1  0
  4  5  2  0
  5  6  1  0
  6  7  1  0
  7  8  1  0
  8  9  1  0
  9 10  1  0
 10 11  2  0
 10 12  1  0
 12 13  1  0
  9 14  1  0
 14 15  2  0
  5 16  1  0
 16 17  2  0
 17  2  1  0
 14  6  1  0
M  END
>  <Title>  (725) 
idABBWgen7

$$$$

     RDKit          2D

 33 37  0  0  0  0  0  0  0  0999 V2000
    3.9786   -1.2990    0.0000 C   0  0  0  0  0  0  0  0  0  0  0  0
    3.2286   -0.0000    0.0000 O   0  0  0  0  0  0  0  0  0  0  0  0
    1.7286    0.0000    0.0000 C   0  0  0  0  0  0  0  0  0  0  0  0
    1.0777    1.3515    0.0000 C   0  0  0  0  0  0  0  0  0  0  0  0
   -0.3846    1.6852    0.0000 C   0  0  0  0  0  0  0  0  0  0  0  0
   -1.5574    0.7500    0.0000 C   0  0  0  0  0  0  0  0  0  0  0  0
   -2.9088    1.4008    0.0000 C   0  0  0  0  0  0  0  0  0  0  0  0
   -4.2297    0.6900    0.0000 N   0  0  0  0  0  0  0  0  0  0  0  0
   -5.3139    1.7266    0.0000 N   0  0  0  0  0  0  0  0  0  0  0  0
   -4.6631    3.0781    0.0000 N   0  0  0  0  0  0  0  0  0  0  0  0
   -3.1767    2.8767    0.0000 N   0  0  0  0  0  0  0  0  0  0  0  0
   -2.1401    3.9609    0.0000 C   0  0  0  0  0  0  0  0  0  0  0  0
   -2.4079    5.4368    0.0000 C   0  0  0  0  0  0  0  0  0  0  0  0
   -1.0870    6.1476    0.0000 C   0  0  0  0  0  0  0  0  0  0  0  0
   -0.0028    5.1110    0.0000 C   0  0  0  0  0  0  0  0  0  0  0  0
    1.4731    5.3789    0.0000 C   0  0  0  0  0  0  0  0  0  0  0  0
    2.4430    4.2346    0.0000 C   0  0  0  0  0  0  0  0  0  0  0  0
    3.9189    4.5024    0.0000 C   0  0  0  0  0  0  0  0  0  0  0  0
    4.4248    5.9145    0.0000 C   0  0  0  0  0  0  0  0  0  0  0  0
    5.9007    6.1824    0.0000 C   0  0  0  0  0  0  0  0  0  0  0  0
    6.8706    5.0381    0.0000 C   0  0  0  0  0  0  0  0  0  0  0  0
    8.3465    5.3059    0.0000 C   0  0  0  0  0  0  0  0  0  0  0  0
    8.8525    6.7180    0.0000 C   0  0  0  0  0  0  0  0  0  0  0  0
    7.8826    7.8623    0.0000 C   0  0  0  0  0  0  0  0  0  0  0  0
    6.4067    7.5944    0.0000 C   0  0  0  0  0  0  0  0  0  0  0  0
    3.4549    7.0588    0.0000 C   0  0  0  0  0  0  0  0  0  0  0  0
    1.9791    6.7909    0.0000 C   0  0  0  0  0  0  0  0  0  0  0  0
   -0.6537    3.7596    0.0000 C   0  0  0  0  0  0  0  0  0  0  0  0
    0.0571    2.4387    0.0000 N   0  0  0  0  0  0  0  0  0  0  0  0
   -1.5574   -0.7500    0.0000 N   0  0  0  0  0  0  0  0  0  0  0  0
   -0.3846   -1.6852    0.0000 C   0  0  0  0  0  0  0  0  0  0  0  0
   -0.7184   -3.1476    0.0000 O   0  0  0  0  0  0  0  0  0  0  0  0
    1.0777   -1.3515    0.0000 C   0  0  0  0  0  0  0  0  0  0  0  0
  1  2  1  0
  2  3  1  0
  3  4  2  0
  4  5  1  0
  5  6  2  0
  6  7  1  0
  7  8  2  0
  8  9  1  0
  9 10  2  0
 10 11  1  0
 11 12  1  0
 12 13  2  0
 13 14  1  0
 14 15  2  0
 15 16  1  0
 16 17  2  0
 17 18  1  0
 18 19  2  0
 19 20  1  0
 20 21  2  0
 21 22  1  0
 22 23  2  0
 23 24  1  0
 24 25  2  0
 19 26  1  0
 26 27  2  0
 15 28  1  0
 28 29  2  0
  6 30  1  0
 30 31  1  0
 31 32  2  0
 31 33  1  0
 33  3  1  0
 11  7  1  0
 28 12  1  0
 27 16  1  0
 25 20  1  0
M  END
>  <Title>  (726) 
idABBXgen7

$$$$

     RDKit          2D

 30 33  0  0  0  0  0  0  0  0999 V2000
    6.0000    2.5981    0.0000 C   0  0  0  0  0  0  0  0  0  0  0  0
    5.2500    1.2990    0.0000 C   0  0  0  0  0  0  0  0  0  0  0  0
    6.0000    0.0000    0.0000 O   0  0  0  0  0  0  0  0  0  0  0  0
    3.7500    1.2990    0.0000 N   0  0  0  0  0  0  0  0  0  0  0  0
    3.0000    0.0000    0.0000 C   0  0  0  0  0  0  0  0  0  0  0  0
    3.7500   -1.2990    0.0000 O   0  0  0  0  0  0  0  0  0  0  0  0
    1.5000    0.0000    0.0000 C   0  0  0  0  0  0  0  0  0  0  0  0
    0.7500    1.2990    0.0000 C   0  0  0  0  0  0  0  0  0  0  0  0
   -0.7500    1.2990    0.0000 C   0  0  0  0  0  0  0  0  0  0  0  0
   -1.5000    0.0000    0.0000 C   0  0  0  0  0  0  0  0  0  0  0  0
   -3.0000    0.0000    0.0000 C   0  0  0  0  0  0  0  0  0  0  0  0
   -3.8817   -1.2135    0.0000 N   0  0  0  0  0  0  0  0  0  0  0  0
   -5.3083   -0.7500    0.0000 N   0  0  0  0  0  0  0  0  0  0  0  0
   -5.3083    0.7500    0.0000 N   0  0  0  0  0  0  0  0  0  0  0  0
   -3.8817    1.2135    0.0000 N   0  0  0  0  0  0  0  0  0  0  0  0
   -3.4182    2.6401    0.0000 C   0  0  0  0  0  0  0  0  0  0  0  0
   -1.9509    2.9520    0.0000 C   0  0  0  0  0  0  0  0  0  0  0  0
   -1.4874    4.3786    0.0000 C   0  0  0  0  0  0  0  0  0  0  0  0
   -2.4911    5.4933    0.0000 C   0  0  0  0  0  0  0  0  0  0  0  0
   -2.0276    6.9199    0.0000 C   0  0  0  0  0  0  0  0  0  0  0  0
   -0.5604    7.2317    0.0000 C   0  0  0  0  0  0  0  0  0  0  0  0
   -0.0968    8.6583    0.0000 C   0  0  0  0  0  0  0  0  0  0  0  0
   -1.1005    9.7730    0.0000 C   0  0  0  0  0  0  0  0  0  0  0  0
   -2.5677    9.4612    0.0000 C   0  0  0  0  0  0  0  0  0  0  0  0
   -3.0313    8.0346    0.0000 C   0  0  0  0  0  0  0  0  0  0  0  0
   -3.9583    5.1814    0.0000 C   0  0  0  0  0  0  0  0  0  0  0  0
   -4.4218    3.7548    0.0000 C   0  0  0  0  0  0  0  0  0  0  0  0
   -0.7500   -1.2990    0.0000 C   0  0  0  0  0  0  0  0  0  0  0  0
   -1.5000   -2.5981    0.0000 O   0  0  0  0  0  0  0  0  0  0  0  0
    0.7500   -1.2990    0.0000 N   0  0  0  0  0  0  0  0  0  0  0  0
  1  2  1  0
  2  3  2  0
  2  4  1  0
  4  5  1  0
  5  6  2  0
  5  7  1  0
  7  8  1  0
  8  9  1  0
  9 10  2  0
 10 11  1  0
 11 12  2  0
 12 13  1  0
 13 14  2  0
 14 15  1  0
 15 16  1  0
 16 17  2  0
 17 18  1  0
 18 19  2  0
 19 20  1  0
 20 21  2  0
 21 22  1  0
 22 23  2  0
 23 24  1  0
 24 25  2  0
 19 26  1  0
 26 27  2  0
 10 28  1  0
 28 29  2  0
 28 30  1  0
 30  7  1  0
 15 11  1  0
 27 16  1  0
 25 20  1  0
M  END
>  <Title>  (727) 
idABBYgen7

$$$$

     RDKit          2D

 16 17  0  0  0  0  0  0  0  0999 V2000
    6.3019    5.8189    0.0000 C   0  0  0  0  0  0  0  0  0  0  0  0
    4.8187    6.0424    0.0000 O   0  0  0  0  0  0  0  0  0  0  0  0
    3.8835    4.8697    0.0000 C   0  0  0  0  0  0  0  0  0  0  0  0
    4.4315    3.4734    0.0000 C   0  0  0  0  0  0  0  0  0  0  0  0
    3.4962    2.3006    0.0000 C   0  0  0  0  0  0  0  0  0  0  0  0
    2.0130    2.5242    0.0000 C   0  0  0  0  0  0  0  0  0  0  0  0
    1.0777    1.3515    0.0000 N   0  0  0  0  0  0  0  0  0  0  0  0
    1.7286    0.0000    0.0000 C   0  0  0  0  0  0  0  0  0  0  0  0
    1.0777   -1.3515    0.0000 C   0  0  0  0  0  0  0  0  0  0  0  0
   -0.3846   -1.6852    0.0000 C   0  0  0  0  0  0  0  0  0  0  0  0
   -0.7184   -3.1476    0.0000 N   0  0  0  0  0  0  0  0  0  0  0  0
   -1.5574   -0.7500    0.0000 N   0  0  0  0  0  0  0  0  0  0  0  0
   -1.5574    0.7500    0.0000 N   0  0  0  0  0  0  0  0  0  0  0  0
   -0.3846    1.6852    0.0000 C   0  0  0  0  0  0  0  0  0  0  0  0
    1.4650    3.9205    0.0000 C   0  0  0  0  0  0  0  0  0  0  0  0
    2.4002    5.0933    0.0000 C   0  0  0  0  0  0  0  0  0  0  0  0
  1  2  1  0
  2  3  1  0
  3  4  2  0
  4  5  1  0
  5  6  2  0
  6  7  1  0
  7  8  1  0
  8  9  2  0
  9 10  1  0
 10 11  1  0
 10 12  2  0
 12 13  1  0
 13 14  2  0
  6 15  1  0
 15 16  2  0
 16  3  1  0
 14  7  1  0
M  END
>  <Title>  (728) 
idABBZgen7

$$$$

     RDKit          2D

 33 37  0  0  0  0  0  0  0  0999 V2000
    3.0000    0.0000    0.0000 C   0  0  0  0  0  0  0  0  0  0  0  0
    1.5000    0.0000    0.0000 C   0  0  0  0  0  0  0  0  0  0  0  0
    0.7500   -1.2990    0.0000 C   0  0  0  0  0  0  0  0  0  0  0  0
   -0.7500   -1.2990    0.0000 C   0  0  0  0  0  0  0  0  0  0  0  0
   -1.5000    0.0000    0.0000 C   0  0  0  0  0  0  0  0  0  0  0  0
   -3.0000    0.0000    0.0000 C   0  0  0  0  0  0  0  0  0  0  0  0
   -3.7500   -1.2990    0.0000 O   0  0  0  0  0  0  0  0  0  0  0  0
   -3.7500    1.2990    0.0000 N   0  0  0  0  0  0  0  0  0  0  0  0
   -5.2500    1.2990    0.0000 C   0  0  0  0  0  0  0  0  0  0  0  0
   -6.1317    0.0855    0.0000 N   0  0  0  0  0  0  0  0  0  0  0  0
   -7.5583    0.5490    0.0000 N   0  0  0  0  0  0  0  0  0  0  0  0
   -7.5583    2.0490    0.0000 N   0  0  0  0  0  0  0  0  0  0  0  0
   -6.1317    2.5126    0.0000 N   0  0  0  0  0  0  0  0  0  0  0  0
   -5.6682    3.9391    0.0000 C   0  0  0  0  0  0  0  0  0  0  0  0
   -4.2009    4.2510    0.0000 C   0  0  0  0  0  0  0  0  0  0  0  0
   -3.7374    5.6776    0.0000 C   0  0  0  0  0  0  0  0  0  0  0  0
   -4.7411    6.7923    0.0000 C   0  0  0  0  0  0  0  0  0  0  0  0
   -4.2776    8.2189    0.0000 C   0  0  0  0  0  0  0  0  0  0  0  0
   -5.1593    9.4324    0.0000 N   0  0  0  0  0  0  0  0  0  0  0  0
   -4.2776   10.6460    0.0000 N   0  0  0  0  0  0  0  0  0  0  0  0
   -2.8510   10.1824    0.0000 N   0  0  0  0  0  0  0  0  0  0  0  0
   -2.8510    8.6824    0.0000 N   0  0  0  0  0  0  0  0  0  0  0  0
   -1.6375    7.8008    0.0000 C   0  0  0  0  0  0  0  0  0  0  0  0
   -1.7943    6.3090    0.0000 C   0  0  0  0  0  0  0  0  0  0  0  0
   -0.5807    5.4273    0.0000 C   0  0  0  0  0  0  0  0  0  0  0  0
    0.7896    6.0374    0.0000 C   0  0  0  0  0  0  0  0  0  0  0  0
    0.9464    7.5292    0.0000 C   0  0  0  0  0  0  0  0  0  0  0  0
   -0.2671    8.4109    0.0000 C   0  0  0  0  0  0  0  0  0  0  0  0
   -6.2083    6.4805    0.0000 C   0  0  0  0  0  0  0  0  0  0  0  0
   -7.2120    7.5952    0.0000 O   0  0  0  0  0  0  0  0  0  0  0  0
   -6.6718    5.0539    0.0000 N   0  0  0  0  0  0  0  0  0  0  0  0
   -0.7500    1.2990    0.0000 N   0  0  0  0  0  0  0  0  0  0  0  0
    0.7500    1.2990    0.0000 C   0  0  0  0  0  0  0  0  0  0  0  0
  1  2  1  0
  2  3  2  0
  3  4  1  0
  4  5  2  0
  5  6  1  0
  6  7  2  0
  6  8  1  0
  8  9  1  0
  9 10  2  0
 10 11  1  0
 11 12  2  0
 12 13  1  0
 13 14  1  0
 14 15  2  0
 15 16  1  0
 16 17  2  0
 17 18  1  0
 18 19  2  0
 19 20  1  0
 20 21  2  0
 21 22  1  0
 22 23  1  0
 23 24  2  0
 24 25  1  0
 25 26  2  0
 26 27  1  0
 27 28  2  0
 17 29  1  0
 29 30  2  0
 29 31  1  0
  5 32  1  0
 32 33  1  0
 33  2  1  0
 13  9  1  0
 31 14  1  0
 22 18  1  0
 28 23  1  0
M  END
>  <Title>  (729) 
idABCAgen7

$$$$

     RDKit          2D

  9  9  0  0  0  0  0  0  0  0999 V2000
    3.4598   -0.0000    0.0000 O   0  0  0  0  0  0  0  0  0  0  0  0
    1.9598    0.0000    0.0000 C   0  0  0  0  0  0  0  0  0  0  0  0
    1.3858   -1.3858    0.0000 C   0  0  0  0  0  0  0  0  0  0  0  0
   -0.0000   -1.9598    0.0000 C   0  0  0  0  0  0  0  0  0  0  0  0
   -1.3858   -1.3858    0.0000 C   0  0  0  0  0  0  0  0  0  0  0  0
   -1.9598    0.0000    0.0000 C   0  0  0  0  0  0  0  0  0  0  0  0
   -1.3858    1.3858    0.0000 C   0  0  0  0  0  0  0  0  0  0  0  0
    0.0000    1.9598    0.0000 C   0  0  0  0  0  0  0  0  0  0  0  0
    1.3858    1.3858    0.0000 C   0  0  0  0  0  0  0  0  0  0  0  0
  1  2  2  0
  2  3  1  0
  3  4  2  0
  4  5  1  0
  5  6  2  0
  6  7  1  0
  7  8  2  0
  8  9  1  0
  9  2  1  0
M  END
>  <Title>  (730) 
idABCBgen7

$$$$

     RDKit          2D

 12 13  0  0  0  0  0  0  0  0999 V2000
   -0.7942    6.6482    0.0000 C   0  0  0  0  0  0  0  0  0  0  0  0
   -1.7979    5.5335    0.0000 O   0  0  0  0  0  0  0  0  0  0  0  0
   -1.3344    4.1069    0.0000 C   0  0  0  0  0  0  0  0  0  0  0  0
    0.1520    3.9056    0.0000 C   0  0  0  0  0  0  0  0  0  0  0  0
    0.9214    2.6179    0.0000 C   0  0  0  0  0  0  0  0  0  0  0  0
    0.3943    1.2135    0.0000 C   0  0  0  0  0  0  0  0  0  0  0  0
    1.2760    0.0000    0.0000 C   0  0  0  0  0  0  0  0  0  0  0  0
    0.3943   -1.2135    0.0000 C   0  0  0  0  0  0  0  0  0  0  0  0
   -1.0323   -0.7500    0.0000 C   0  0  0  0  0  0  0  0  0  0  0  0
   -1.0323    0.7500    0.0000 C   0  0  0  0  0  0  0  0  0  0  0  0
   -2.2841    1.5763    0.0000 C   0  0  0  0  0  0  0  0  0  0  0  0
   -2.4186    3.0703    0.0000 C   0  0  0  0  0  0  0  0  0  0  0  0
  1  2  1  0
  2  3  1  0
  3  4  2  0
  4  5  1  0
  5  6  2  0
  6  7  1  0
  7  8  2  0
  8  9  1  0
  9 10  2  0
 10 11  1  0
 11 12  2  0
 12  3  1  0
 10  6  1  0
M  END
>  <Title>  (731) 
idABCCgen7

$$$$

     RDKit          2D

 61 70  0  0  0  0  0  0  0  0999 V2000
    3.0000    0.0000    0.0000 C   0  0  0  0  0  0  0  0  0  0  0  0
    1.5000    0.0000    0.0000 C   0  0  0  0  0  0  0  0  0  0  0  0
    0.7500    1.2990    0.0000 C   0  0  0  0  0  0  0  0  0  0  0  0
   -0.7500    1.2990    0.0000 C   0  0  0  0  0  0  0  0  0  0  0  0
   -1.5000    0.0000    0.0000 C   0  0  0  0  0  0  0  0  0  0  0  0
   -3.0000    0.0000    0.0000 C   0  0  0  0  0  0  0  0  0  0  0  0
   -3.8817   -1.2135    0.0000 N   0  0  0  0  0  0  0  0  0  0  0  0
   -5.3083   -0.7500    0.0000 N   0  0  0  0  0  0  0  0  0  0  0  0
   -5.3083    0.7500    0.0000 N   0  0  0  0  0  0  0  0  0  0  0  0
   -3.8817    1.2135    0.0000 N   0  0  0  0  0  0  0  0  0  0  0  0
   -3.4182    2.6401    0.0000 C   0  0  0  0  0  0  0  0  0  0  0  0
   -1.9509    2.9520    0.0000 C   0  0  0  0  0  0  0  0  0  0  0  0
   -1.4874    4.3786    0.0000 C   0  0  0  0  0  0  0  0  0  0  0  0
   -2.4911    5.4933    0.0000 C   0  0  0  0  0  0  0  0  0  0  0  0
   -2.0276    6.9199    0.0000 C   0  0  0  0  0  0  0  0  0  0  0  0
   -0.5604    7.2317    0.0000 C   0  0  0  0  0  0  0  0  0  0  0  0
   -0.0968    8.6583    0.0000 C   0  0  0  0  0  0  0  0  0  0  0  0
   -1.1005    9.7730    0.0000 C   0  0  0  0  0  0  0  0  0  0  0  0
   -0.6370   11.1996    0.0000 C   0  0  0  0  0  0  0  0  0  0  0  0
    0.8302   11.5115    0.0000 C   0  0  0  0  0  0  0  0  0  0  0  0
    1.2937   12.9381    0.0000 C   0  0  0  0  0  0  0  0  0  0  0  0
    0.2901   14.0528    0.0000 C   0  0  0  0  0  0  0  0  0  0  0  0
   -1.1772   13.7409    0.0000 C   0  0  0  0  0  0  0  0  0  0  0  0
   -1.6407   12.3143    0.0000 C   0  0  0  0  0  0  0  0  0  0  0  0
   -2.5677    9.4612    0.0000 C   0  0  0  0  0  0  0  0  0  0  0  0
   -3.0313    8.0346    0.0000 C   0  0  0  0  0  0  0  0  0  0  0  0
   -4.4985    7.7227    0.0000 C   0  0  0  0  0  0  0  0  0  0  0  0
   -4.9620    6.2961    0.0000 C   0  0  0  0  0  0  0  0  0  0  0  0
   -6.4292    5.9843    0.0000 C   0  0  0  0  0  0  0  0  0  0  0  0
   -7.4329    7.0990    0.0000 C   0  0  0  0  0  0  0  0  0  0  0  0
   -8.9002    6.7871    0.0000 C   0  0  0  0  0  0  0  0  0  0  0  0
   -9.3637    5.3605    0.0000 C   0  0  0  0  0  0  0  0  0  0  0  0
  -10.8309    5.0487    0.0000 C   0  0  0  0  0  0  0  0  0  0  0  0
  -11.8346    6.1634    0.0000 C   0  0  0  0  0  0  0  0  0  0  0  0
  -11.3711    7.5900    0.0000 C   0  0  0  0  0  0  0  0  0  0  0  0
   -9.9039    7.9018    0.0000 C   0  0  0  0  0  0  0  0  0  0  0  0
   -6.9694    8.5256    0.0000 C   0  0  0  0  0  0  0  0  0  0  0  0
   -5.5022    8.8374    0.0000 C   0  0  0  0  0  0  0  0  0  0  0  0
   -5.0387   10.2640    0.0000 C   0  0  0  0  0  0  0  0  0  0  0  0
   -6.0424   11.3787    0.0000 C   0  0  0  0  0  0  0  0  0  0  0  0
   -5.5788   12.8053    0.0000 C   0  0  0  0  0  0  0  0  0  0  0  0
   -4.1116   13.1172    0.0000 C   0  0  0  0  0  0  0  0  0  0  0  0
   -3.1079   12.0025    0.0000 C   0  0  0  0  0  0  0  0  0  0  0  0
   -3.5714   10.5759    0.0000 C   0  0  0  0  0  0  0  0  0  0  0  0
   -3.9583    5.1814    0.0000 C   0  0  0  0  0  0  0  0  0  0  0  0
   -4.4218    3.7548    0.0000 C   0  0  0  0  0  0  0  0  0  0  0  0
   -5.8891    3.4430    0.0000 C   0  0  0  0  0  0  0  0  0  0  0  0
   -6.8928    4.5577    0.0000 C   0  0  0  0  0  0  0  0  0  0  0  0
   -8.3600    4.2458    0.0000 C   0  0  0  0  0  0  0  0  0  0  0  0
   -8.8235    2.8192    0.0000 C   0  0  0  0  0  0  0  0  0  0  0  0
  -10.2907    2.5074    0.0000 C   0  0  0  0  0  0  0  0  0  0  0  0
  -11.2944    3.6221    0.0000 C   0  0  0  0  0  0  0  0  0  0  0  0
  -12.7617    3.3102    0.0000 C   0  0  0  0  0  0  0  0  0  0  0  0
  -13.2252    1.8836    0.0000 C   0  0  0  0  0  0  0  0  0  0  0  0
  -12.2215    0.7689    0.0000 C   0  0  0  0  0  0  0  0  0  0  0  0
  -10.7543    1.0808    0.0000 C   0  0  0  0  0  0  0  0  0  0  0  0
   -7.8198    1.7045    0.0000 C   0  0  0  0  0  0  0  0  0  0  0  0
   -6.3526    2.0164    0.0000 C   0  0  0  0  0  0  0  0  0  0  0  0
   -0.7500   -1.2990    0.0000 C   0  0  0  0  0  0  0  0  0  0  0  0
   -1.5000   -2.5981    0.0000 O   0  0  0  0  0  0  0  0  0  0  0  0
    0.7500   -1.2990    0.0000 N   0  0  0  0  0  0  0  0  0  0  0  0
  1  2  1  0
  2  3  2  0
  3  4  1  0
  4  5  2  0
  5  6  1  0
  6  7  2  0
  7  8  1  0
  8  9  2  0
  9 10  1  0
 10 11  1  0
 11 12  2  0
 12 13  1  0
 13 14  2  0
 14 15  1  0
 15 16  2  0
 16 17  1  0
 17 18  2  0
 18 19  1  0
 19 20  2  0
 20 21  1  0
 21 22  2  0
 22 23  1  0
 23 24  2  0
 18 25  1  0
 25 26  2  0
 26 27  1  0
 27 28  2  0
 28 29  1  0
 29 30  2  0
 30 31  1  0
 31 32  2  0
 32 33  1  0
 33 34  2  0
 34 35  1  0
 35 36  2  0
 30 37  1  0
 37 38  2  0
 38 39  1  0
 39 40  2  0
 40 41  1  0
 41 42  2  0
 42 43  1  0
 43 44  2  0
 14 45  1  0
 45 46  2  0
 46 47  1  0
 47 48  2  0
 48 49  1  0
 49 50  2  0
 50 51  1  0
 51 52  2  0
 52 53  1  0
 53 54  2  0
 54 55  1  0
 55 56  2  0
 50 57  1  0
 57 58  1  0
  5 59  1  0
 59 60  2  0
 59 61  1  0
 61  2  1  0
 10  6  1  0
 46 11  1  0
 58 47  1  0
 26 15  1  0
 38 27  1  0
 44 39  1  0
 56 51  1  0
 24 19  1  0
 36 31  1  0
M  END
>  <Title>  (732) 
idABCDgen7

$$$$

     RDKit          2D

 13 13  0  0  0  0  0  0  0  0999 V2000
    4.3978    0.0000    0.0000 C   0  0  0  0  0  0  0  0  0  0  0  0
    2.8978    0.0000    0.0000 C   0  0  0  0  0  0  0  0  0  0  0  0
    2.5095   -1.4489    0.0000 C   0  0  0  0  0  0  0  0  0  0  0  0
    1.4489   -2.5095    0.0000 C   0  0  0  0  0  0  0  0  0  0  0  0
   -0.0000   -2.8978    0.0000 C   0  0  0  0  0  0  0  0  0  0  0  0
   -1.4489   -2.5095    0.0000 C   0  0  0  0  0  0  0  0  0  0  0  0
   -2.5095   -1.4489    0.0000 C   0  0  0  0  0  0  0  0  0  0  0  0
   -2.8978    0.0000    0.0000 C   0  0  0  0  0  0  0  0  0  0  0  0
   -2.5095    1.4489    0.0000 C   0  0  0  0  0  0  0  0  0  0  0  0
   -1.4489    2.5095    0.0000 C   0  0  0  0  0  0  0  0  0  0  0  0
    0.0000    2.8978    0.0000 C   0  0  0  0  0  0  0  0  0  0  0  0
    1.4489    2.5095    0.0000 C   0  0  0  0  0  0  0  0  0  0  0  0
    2.5095    1.4489    0.0000 C   0  0  0  0  0  0  0  0  0  0  0  0
  1  2  1  0
  2  3  2  0
  3  4  1  0
  4  5  2  0
  5  6  1  0
  6  7  2  0
  7  8  1  0
  8  9  2  0
  9 10  1  0
 10 11  2  0
 11 12  1  0
 12 13  2  0
 13  2  1  0
M  END
>  <Title>  (733) 
idABCEgen7

$$$$

     RDKit          2D

 43 49  0  0  0  0  0  0  0  0999 V2000
    3.0000    0.0000    0.0000 C   0  0  0  0  0  0  0  0  0  0  0  0
    1.5000    0.0000    0.0000 C   0  0  0  0  0  0  0  0  0  0  0  0
    0.7500   -1.2990    0.0000 C   0  0  0  0  0  0  0  0  0  0  0  0
   -0.7500   -1.2990    0.0000 C   0  0  0  0  0  0  0  0  0  0  0  0
   -1.5000    0.0000    0.0000 C   0  0  0  0  0  0  0  0  0  0  0  0
   -3.0000    0.0000    0.0000 N   0  0  0  0  0  0  0  0  0  0  0  0
   -3.7500    1.2990    0.0000 N   0  0  0  0  0  0  0  0  0  0  0  0
   -5.2500    1.2990    0.0000 N   0  0  0  0  0  0  0  0  0  0  0  0
   -6.0000    0.0000    0.0000 N   0  0  0  0  0  0  0  0  0  0  0  0
   -5.2500   -1.2990    0.0000 N   0  0  0  0  0  0  0  0  0  0  0  0
   -3.7500   -1.2990    0.0000 N   0  0  0  0  0  0  0  0  0  0  0  0
   -3.0000   -2.5981    0.0000 C   0  0  0  0  0  0  0  0  0  0  0  0
   -3.7500   -3.8971    0.0000 C   0  0  0  0  0  0  0  0  0  0  0  0
   -3.0000   -5.1962    0.0000 C   0  0  0  0  0  0  0  0  0  0  0  0
   -1.5000   -5.1962    0.0000 C   0  0  0  0  0  0  0  0  0  0  0  0
   -0.7500   -6.4952    0.0000 C   0  0  0  0  0  0  0  0  0  0  0  0
    0.7418   -6.6520    0.0000 N   0  0  0  0  0  0  0  0  0  0  0  0
    1.0537   -8.1192    0.0000 N   0  0  0  0  0  0  0  0  0  0  0  0
   -0.2454   -8.8692    0.0000 N   0  0  0  0  0  0  0  0  0  0  0  0
   -1.3601   -7.8655    0.0000 N   0  0  0  0  0  0  0  0  0  0  0  0
   -2.8273   -8.1774    0.0000 C   0  0  0  0  0  0  0  0  0  0  0  0
   -3.8310   -7.0627    0.0000 C   0  0  0  0  0  0  0  0  0  0  0  0
   -5.2982   -7.3745    0.0000 C   0  0  0  0  0  0  0  0  0  0  0  0
   -5.7618   -8.8011    0.0000 C   0  0  0  0  0  0  0  0  0  0  0  0
   -7.2290   -9.1130    0.0000 C   0  0  0  0  0  0  0  0  0  0  0  0
   -8.2327   -7.9983    0.0000 C   0  0  0  0  0  0  0  0  0  0  0  0
   -9.6999   -8.3101    0.0000 C   0  0  0  0  0  0  0  0  0  0  0  0
  -10.1634   -9.7367    0.0000 C   0  0  0  0  0  0  0  0  0  0  0  0
   -9.1597  -10.8514    0.0000 C   0  0  0  0  0  0  0  0  0  0  0  0
   -7.6925  -10.5396    0.0000 C   0  0  0  0  0  0  0  0  0  0  0  0
   -4.7581   -9.9158    0.0000 C   0  0  0  0  0  0  0  0  0  0  0  0
   -3.2909   -9.6040    0.0000 C   0  0  0  0  0  0  0  0  0  0  0  0
   -2.2872  -10.7187    0.0000 C   0  0  0  0  0  0  0  0  0  0  0  0
   -2.7507  -12.1453    0.0000 C   0  0  0  0  0  0  0  0  0  0  0  0
   -1.7470  -13.2600    0.0000 C   0  0  0  0  0  0  0  0  0  0  0  0
   -0.2798  -12.9481    0.0000 C   0  0  0  0  0  0  0  0  0  0  0  0
    0.1838  -11.5215    0.0000 C   0  0  0  0  0  0  0  0  0  0  0  0
   -0.8199  -10.4068    0.0000 C   0  0  0  0  0  0  0  0  0  0  0  0
   -0.7500   -3.8971    0.0000 C   0  0  0  0  0  0  0  0  0  0  0  0
    0.7500   -3.8971    0.0000 O   0  0  0  0  0  0  0  0  0  0  0  0
   -1.5000   -2.5981    0.0000 N   0  0  0  0  0  0  0  0  0  0  0  0
   -0.7500    1.2990    0.0000 C   0  0  0  0  0  0  0  0  0  0  0  0
    0.7500    1.2990    0.0000 C   0  0  0  0  0  0  0  0  0  0  0  0
  1  2  1  0
  2  3  2  0
  3  4  1  0
  4  5  2  0
  5  6  1  0
  6  7  1  0
  7  8  2  0
  8  9  1  0
  9 10  2  0
 10 11  1  0
 11 12  1  0
 12 13  2  0
 13 14  1  0
 14 15  2  0
 15 16  1  0
 16 17  2  0
 17 18  1  0
 18 19  2  0
 19 20  1  0
 20 21  1  0
 21 22  2  0
 22 23  1  0
 23 24  2  0
 24 25  1  0
 25 26  2  0
 26 27  1  0
 27 28  2  0
 28 29  1  0
 29 30  2  0
 24 31  1  0
 31 32  2  0
 32 33  1  0
 33 34  2  0
 34 35  1  0
 35 36  2  0
 36 37  1  0
 37 38  2  0
 15 39  1  0
 39 40  2  0
 39 41  1  0
  5 42  1  0
 42 43  2  0
 43  2  1  0
 11  6  1  0
 41 12  1  0
 20 16  1  0
 32 21  1  0
 38 33  1  0
 30 25  1  0
M  END
>  <Title>  (734) 
idABCFgen7

$$$$

     RDKit          2D

 61 69  0  0  0  0  0  0  0  0999 V2000
    0.9879   11.6956    0.0000 C   0  0  0  0  0  0  0  0  0  0  0  0
    0.8311   10.2038    0.0000 O   0  0  0  0  0  0  0  0  0  0  0  0
   -0.5392    9.5937    0.0000 C   0  0  0  0  0  0  0  0  0  0  0  0
   -1.7527   10.4753    0.0000 C   0  0  0  0  0  0  0  0  0  0  0  0
   -3.1230    9.8652    0.0000 C   0  0  0  0  0  0  0  0  0  0  0  0
   -3.2798    8.3735    0.0000 C   0  0  0  0  0  0  0  0  0  0  0  0
   -4.6502    7.7634    0.0000 C   0  0  0  0  0  0  0  0  0  0  0  0
   -5.9492    8.5134    0.0000 N   0  0  0  0  0  0  0  0  0  0  0  0
   -7.0639    7.5097    0.0000 N   0  0  0  0  0  0  0  0  0  0  0  0
   -6.4538    6.1393    0.0000 N   0  0  0  0  0  0  0  0  0  0  0  0
   -4.9620    6.2961    0.0000 N   0  0  0  0  0  0  0  0  0  0  0  0
   -3.9583    5.1814    0.0000 C   0  0  0  0  0  0  0  0  0  0  0  0
   -2.4911    5.4933    0.0000 C   0  0  0  0  0  0  0  0  0  0  0  0
   -1.4874    4.3786    0.0000 C   0  0  0  0  0  0  0  0  0  0  0  0
   -1.9509    2.9520    0.0000 C   0  0  0  0  0  0  0  0  0  0  0  0
   -0.9472    1.8373    0.0000 C   0  0  0  0  0  0  0  0  0  0  0  0
    0.5200    2.1491    0.0000 C   0  0  0  0  0  0  0  0  0  0  0  0
    1.5237    1.0344    0.0000 C   0  0  0  0  0  0  0  0  0  0  0  0
    1.0602   -0.3922    0.0000 C   0  0  0  0  0  0  0  0  0  0  0  0
   -0.4071   -0.7040    0.0000 C   0  0  0  0  0  0  0  0  0  0  0  0
   -1.4108    0.4107    0.0000 C   0  0  0  0  0  0  0  0  0  0  0  0
   -3.4182    2.6401    0.0000 C   0  0  0  0  0  0  0  0  0  0  0  0
   -4.4218    3.7548    0.0000 C   0  0  0  0  0  0  0  0  0  0  0  0
   -5.8891    3.4430    0.0000 C   0  0  0  0  0  0  0  0  0  0  0  0
   -6.8928    4.5577    0.0000 C   0  0  0  0  0  0  0  0  0  0  0  0
   -8.3600    4.2458    0.0000 C   0  0  0  0  0  0  0  0  0  0  0  0
   -8.8235    2.8192    0.0000 C   0  0  0  0  0  0  0  0  0  0  0  0
   -7.8198    1.7045    0.0000 N   0  0  0  0  0  0  0  0  0  0  0  0
   -6.3526    2.0164    0.0000 C   0  0  0  0  0  0  0  0  0  0  0  0
   -5.3489    0.9017    0.0000 C   0  0  0  0  0  0  0  0  0  0  0  0
   -3.8817    1.2135    0.0000 C   0  0  0  0  0  0  0  0  0  0  0  0
   -2.8780    0.0988    0.0000 C   0  0  0  0  0  0  0  0  0  0  0  0
   -3.3415   -1.3278    0.0000 C   0  0  0  0  0  0  0  0  0  0  0  0
   -2.3378   -2.4425    0.0000 C   0  0  0  0  0  0  0  0  0  0  0  0
   -2.8013   -3.8691    0.0000 O   0  0  0  0  0  0  0  0  0  0  0  0
   -0.8706   -2.1306    0.0000 N   0  0  0  0  0  0  0  0  0  0  0  0
    0.1331   -3.2453    0.0000 C   0  0  0  0  0  0  0  0  0  0  0  0
    1.6003   -2.9335    0.0000 C   0  0  0  0  0  0  0  0  0  0  0  0
    2.6040   -4.0482    0.0000 C   0  0  0  0  0  0  0  0  0  0  0  0
    2.1405   -5.4748    0.0000 C   0  0  0  0  0  0  0  0  0  0  0  0
    0.6733   -5.7866    0.0000 C   0  0  0  0  0  0  0  0  0  0  0  0
   -0.3304   -4.6719    0.0000 C   0  0  0  0  0  0  0  0  0  0  0  0
   -4.8087   -1.6396    0.0000 C   0  0  0  0  0  0  0  0  0  0  0  0
   -5.8124   -0.5249    0.0000 C   0  0  0  0  0  0  0  0  0  0  0  0
   -7.2796   -0.8368    0.0000 C   0  0  0  0  0  0  0  0  0  0  0  0
   -7.7432   -2.2634    0.0000 C   0  0  0  0  0  0  0  0  0  0  0  0
   -9.2104   -2.5752    0.0000 C   0  0  0  0  0  0  0  0  0  0  0  0
  -10.2141   -1.4605    0.0000 C   0  0  0  0  0  0  0  0  0  0  0  0
  -11.6813   -1.7724    0.0000 C   0  0  0  0  0  0  0  0  0  0  0  0
  -12.6850   -0.6577    0.0000 O   0  0  0  0  0  0  0  0  0  0  0  0
  -12.1448   -3.1990    0.0000 N   0  0  0  0  0  0  0  0  0  0  0  0
  -13.6121   -3.5108    0.0000 C   0  0  0  0  0  0  0  0  0  0  0  0
  -14.0756   -4.9374    0.0000 C   0  0  0  0  0  0  0  0  0  0  0  0
  -15.5428   -5.2493    0.0000 C   0  0  0  0  0  0  0  0  0  0  0  0
  -16.5465   -4.1346    0.0000 C   0  0  0  0  0  0  0  0  0  0  0  0
  -16.0830   -2.7080    0.0000 C   0  0  0  0  0  0  0  0  0  0  0  0
  -14.6158   -2.3961    0.0000 C   0  0  0  0  0  0  0  0  0  0  0  0
   -9.7506   -0.0339    0.0000 C   0  0  0  0  0  0  0  0  0  0  0  0
   -8.2833    0.2779    0.0000 C   0  0  0  0  0  0  0  0  0  0  0  0
   -2.0663    7.4918    0.0000 N   0  0  0  0  0  0  0  0  0  0  0  0
   -0.6960    8.1019    0.0000 N   0  0  0  0  0  0  0  0  0  0  0  0
  1  2  1  0
  2  3  1  0
  3  4  2  0
  4  5  1  0
  5  6  2  0
  6  7  1  0
  7  8  2  0
  8  9  1  0
  9 10  2  0
 10 11  1  0
 11 12  1  0
 12 13  2  0
 13 14  1  0
 14 15  2  0
 15 16  1  0
 16 17  2  0
 17 18  1  0
 18 19  2  0
 19 20  1  0
 20 21  2  0
 15 22  1  0
 22 23  2  0
 23 24  1  0
 24 25  2  0
 25 26  1  0
 26 27  2  0
 27 28  1  0
 28 29  2  0
 29 30  1  0
 30 31  2  0
 31 32  1  0
 32 33  2  0
 33 34  1  0
 34 35  2  0
 34 36  1  0
 36 37  1  0
 37 38  2  0
 38 39  1  0
 39 40  2  0
 40 41  1  0
 41 42  2  0
 33 43  1  0
 43 44  2  0
 44 45  1  0
 45 46  2  0
 46 47  1  0
 47 48  2  0
 48 49  1  0
 49 50  2  0
 49 51  1  0
 51 52  1  0
 52 53  2  0
 53 54  1  0
 54 55  2  0
 55 56  1  0
 56 57  2  0
 48 58  1  0
 58 59  2  0
  6 60  1  0
 60 61  2  0
 61  3  1  0
 11  7  1  0
 23 12  1  0
 29 24  1  0
 44 30  1  0
 59 45  1  0
 21 16  1  0
 42 37  1  0
 57 52  1  0
M  END
>  <Title>  (735) 
idABCGgen7

$$$$

     RDKit          2D

 17 17  0  0  0  0  0  0  0  0999 V2000
    4.8705    0.0000    0.0000 C   0  0  0  0  0  0  0  0  0  0  0  0
    3.3705    0.0000    0.0000 C   0  0  0  0  0  0  0  0  0  0  0  0
    3.0367   -1.4624    0.0000 C   0  0  0  0  0  0  0  0  0  0  0  0
    2.1015   -2.6351    0.0000 C   0  0  0  0  0  0  0  0  0  0  0  0
    0.7500   -3.2860    0.0000 C   0  0  0  0  0  0  0  0  0  0  0  0
   -0.7500   -3.2860    0.0000 C   0  0  0  0  0  0  0  0  0  0  0  0
   -2.1015   -2.6351    0.0000 C   0  0  0  0  0  0  0  0  0  0  0  0
   -3.0367   -1.4624    0.0000 C   0  0  0  0  0  0  0  0  0  0  0  0
   -3.3705    0.0000    0.0000 C   0  0  0  0  0  0  0  0  0  0  0  0
   -3.0367    1.4624    0.0000 C   0  0  0  0  0  0  0  0  0  0  0  0
   -2.1015    2.6351    0.0000 C   0  0  0  0  0  0  0  0  0  0  0  0
   -0.7500    3.2860    0.0000 C   0  0  0  0  0  0  0  0  0  0  0  0
    0.7500    3.2860    0.0000 C   0  0  0  0  0  0  0  0  0  0  0  0
    1.0838    4.7484    0.0000 C   0  0  0  0  0  0  0  0  0  0  0  0
    2.1015    2.6351    0.0000 C   0  0  0  0  0  0  0  0  0  0  0  0
    3.0367    3.8079    0.0000 O   0  0  0  0  0  0  0  0  0  0  0  0
    3.0367    1.4624    0.0000 N   0  0  0  0  0  0  0  0  0  0  0  0
  1  2  1  0
  2  3  2  0
  3  4  1  0
  4  5  2  0
  5  6  1  0
  6  7  2  0
  7  8  1  0
  8  9  2  0
  9 10  1  0
 10 11  2  0
 11 12  1  0
 12 13  2  0
 13 14  1  0
 13 15  1  0
 15 16  2  0
 15 17  1  0
 17  2  1  0
M  END
>  <Title>  (736) 
idABCHgen7

$$$$

     RDKit          2D

 24 26  0  0  0  0  0  0  0  0999 V2000
    3.0000    0.0000    0.0000 C   0  0  0  0  0  0  0  0  0  0  0  0
    1.5000    0.0000    0.0000 C   0  0  0  0  0  0  0  0  0  0  0  0
    0.7500   -1.2990    0.0000 C   0  0  0  0  0  0  0  0  0  0  0  0
   -0.7500   -1.2990    0.0000 C   0  0  0  0  0  0  0  0  0  0  0  0
   -1.5000    0.0000    0.0000 C   0  0  0  0  0  0  0  0  0  0  0  0
   -3.0000    0.0000    0.0000 N   0  0  0  0  0  0  0  0  0  0  0  0
   -3.7500    1.2990    0.0000 C   0  0  0  0  0  0  0  0  0  0  0  0
   -5.2500    1.2990    0.0000 C   0  0  0  0  0  0  0  0  0  0  0  0
   -6.0000    0.0000    0.0000 N   0  0  0  0  0  0  0  0  0  0  0  0
   -7.5000    0.0000    0.0000 C   0  0  0  0  0  0  0  0  0  0  0  0
   -8.2500    1.2990    0.0000 C   0  0  0  0  0  0  0  0  0  0  0  0
   -7.5000    2.5981    0.0000 O   0  0  0  0  0  0  0  0  0  0  0  0
   -9.7500    1.2990    0.0000 N   0  0  0  0  0  0  0  0  0  0  0  0
  -10.5000    2.5981    0.0000 C   0  0  0  0  0  0  0  0  0  0  0  0
   -9.7500    3.8971    0.0000 C   0  0  0  0  0  0  0  0  0  0  0  0
  -10.5000    5.1962    0.0000 C   0  0  0  0  0  0  0  0  0  0  0  0
  -12.0000    5.1962    0.0000 C   0  0  0  0  0  0  0  0  0  0  0  0
  -12.7500    3.8971    0.0000 C   0  0  0  0  0  0  0  0  0  0  0  0
  -12.0000    2.5981    0.0000 C   0  0  0  0  0  0  0  0  0  0  0  0
   -5.2500   -1.2990    0.0000 C   0  0  0  0  0  0  0  0  0  0  0  0
   -3.7500   -1.2990    0.0000 C   0  0  0  0  0  0  0  0  0  0  0  0
   -0.7500    1.2990    0.0000 C   0  0  0  0  0  0  0  0  0  0  0  0
   -1.5000    2.5981    0.0000 O   0  0  0  0  0  0  0  0  0  0  0  0
    0.7500    1.2990    0.0000 N   0  0  0  0  0  0  0  0  0  0  0  0
  1  2  1  0
  2  3  2  0
  3  4  1  0
  4  5  2  0
  5  6  1  0
  6  7  1  0
  7  8  2  0
  8  9  1  0
  9 10  1  0
 10 11  1  0
 11 12  2  0
 11 13  1  0
 13 14  1  0
 14 15  2  0
 15 16  1  0
 16 17  2  0
 17 18  1  0
 18 19  2  0
  9 20  1  0
 20 21  1  0
  5 22  1  0
 22 23  2  0
 22 24  1  0
 24  2  1  0
 21  6  1  0
 19 14  1  0
M  END
>  <Title>  (737) 
idABCIgen7

$$$$

     RDKit          2D

 45 50  0  0  0  0  0  0  0  0999 V2000
    5.2500   -1.2990    0.0000 C   0  0  0  0  0  0  0  0  0  0  0  0
    3.7500   -1.2990    0.0000 C   0  0  0  0  0  0  0  0  0  0  0  0
    3.0000   -2.5981    0.0000 O   0  0  0  0  0  0  0  0  0  0  0  0
    3.0000    0.0000    0.0000 O   0  0  0  0  0  0  0  0  0  0  0  0
    1.5000    0.0000    0.0000 C   0  0  0  0  0  0  0  0  0  0  0  0
    0.7500   -1.2990    0.0000 C   0  0  0  0  0  0  0  0  0  0  0  0
   -0.7500   -1.2990    0.0000 C   0  0  0  0  0  0  0  0  0  0  0  0
   -1.5000    0.0000    0.0000 C   0  0  0  0  0  0  0  0  0  0  0  0
   -3.0000    0.0000    0.0000 C   0  0  0  0  0  0  0  0  0  0  0  0
   -3.7500   -1.2990    0.0000 O   0  0  0  0  0  0  0  0  0  0  0  0
   -3.7500    1.2990    0.0000 N   0  0  0  0  0  0  0  0  0  0  0  0
   -5.2500    1.2990    0.0000 C   0  0  0  0  0  0  0  0  0  0  0  0
   -6.1317    0.0855    0.0000 N   0  0  0  0  0  0  0  0  0  0  0  0
   -7.5583    0.5490    0.0000 N   0  0  0  0  0  0  0  0  0  0  0  0
   -7.5583    2.0490    0.0000 N   0  0  0  0  0  0  0  0  0  0  0  0
   -6.1317    2.5126    0.0000 N   0  0  0  0  0  0  0  0  0  0  0  0
   -5.6682    3.9391    0.0000 C   0  0  0  0  0  0  0  0  0  0  0  0
   -4.2009    4.2510    0.0000 C   0  0  0  0  0  0  0  0  0  0  0  0
   -3.7374    5.6776    0.0000 C   0  0  0  0  0  0  0  0  0  0  0  0
   -4.7411    6.7923    0.0000 C   0  0  0  0  0  0  0  0  0  0  0  0
   -4.2776    8.2189    0.0000 C   0  0  0  0  0  0  0  0  0  0  0  0
   -5.2813    9.3336    0.0000 O   0  0  0  0  0  0  0  0  0  0  0  0
   -2.8104    8.5308    0.0000 N   0  0  0  0  0  0  0  0  0  0  0  0
   -2.3468    9.9574    0.0000 C   0  0  0  0  0  0  0  0  0  0  0  0
   -0.8796   10.2692    0.0000 C   0  0  0  0  0  0  0  0  0  0  0  0
   -0.4161   11.6958    0.0000 C   0  0  0  0  0  0  0  0  0  0  0  0
   -1.4198   12.8105    0.0000 C   0  0  0  0  0  0  0  0  0  0  0  0
   -2.8870   12.4987    0.0000 C   0  0  0  0  0  0  0  0  0  0  0  0
   -3.3505   11.0721    0.0000 C   0  0  0  0  0  0  0  0  0  0  0  0
   -6.2083    6.4805    0.0000 C   0  0  0  0  0  0  0  0  0  0  0  0
   -6.6718    5.0539    0.0000 C   0  0  0  0  0  0  0  0  0  0  0  0
   -8.1391    4.7420    0.0000 C   0  0  0  0  0  0  0  0  0  0  0  0
   -9.1428    5.8567    0.0000 C   0  0  0  0  0  0  0  0  0  0  0  0
  -10.6100    5.5448    0.0000 C   0  0  0  0  0  0  0  0  0  0  0  0
  -11.0735    4.1183    0.0000 C   0  0  0  0  0  0  0  0  0  0  0  0
  -12.5407    3.8064    0.0000 C   0  0  0  0  0  0  0  0  0  0  0  0
  -13.5444    4.9211    0.0000 C   0  0  0  0  0  0  0  0  0  0  0  0
  -15.0117    4.6092    0.0000 C   0  0  0  0  0  0  0  0  0  0  0  0
  -15.4752    3.1827    0.0000 C   0  0  0  0  0  0  0  0  0  0  0  0
  -14.4715    2.0679    0.0000 C   0  0  0  0  0  0  0  0  0  0  0  0
  -13.0043    2.3798    0.0000 C   0  0  0  0  0  0  0  0  0  0  0  0
  -10.0698    3.0035    0.0000 C   0  0  0  0  0  0  0  0  0  0  0  0
   -8.6026    3.3154    0.0000 C   0  0  0  0  0  0  0  0  0  0  0  0
   -0.7500    1.2990    0.0000 C   0  0  0  0  0  0  0  0  0  0  0  0
    0.7500    1.2990    0.0000 C   0  0  0  0  0  0  0  0  0  0  0  0
  1  2  1  0
  2  3  2  0
  2  4  1  0
  4  5  1  0
  5  6  2  0
  6  7  1  0
  7  8  2  0
  8  9  1  0
  9 10  2  0
  9 11  1  0
 11 12  1  0
 12 13  2  0
 13 14  1  0
 14 15  2  0
 15 16  1  0
 16 17  1  0
 17 18  2  0
 18 19  1  0
 19 20  2  0
 20 21  1  0
 21 22  2  0
 21 23  1  0
 23 24  1  0
 24 25  2  0
 25 26  1  0
 26 27  2  0
 27 28  1  0
 28 29  2  0
 20 30  1  0
 30 31  2  0
 31 32  1  0
 32 33  2  0
 33 34  1  0
 34 35  2  0
 35 36  1  0
 36 37  2  0
 37 38  1  0
 38 39  2  0
 39 40  1  0
 40 41  2  0
 35 42  1  0
 42 43  2  0
  8 44  1  0
 44 45  2  0
 45  5  1  0
 16 12  1  0
 31 17  1  0
 43 32  1  0
 29 24  1  0
 41 36  1  0
M  END
>  <Title>  (738) 
idABCJgen7

$$$$

     RDKit          2D

 15 16  0  0  0  0  0  0  0  0999 V2000
   -3.0000   -2.5981    0.0000 C   0  0  0  0  0  0  0  0  0  0  0  0
   -1.5000   -2.5981    0.0000 C   0  0  0  0  0  0  0  0  0  0  0  0
   -0.7500   -3.8971    0.0000 C   0  0  0  0  0  0  0  0  0  0  0  0
    0.7500   -3.8971    0.0000 C   0  0  0  0  0  0  0  0  0  0  0  0
    1.5000   -2.5981    0.0000 C   0  0  0  0  0  0  0  0  0  0  0  0
    3.0000   -2.5981    0.0000 C   0  0  0  0  0  0  0  0  0  0  0  0
    3.7500   -1.2990    0.0000 O   0  0  0  0  0  0  0  0  0  0  0  0
    3.7500   -3.8971    0.0000 N   0  0  0  0  0  0  0  0  0  0  0  0
    5.2500   -3.8971    0.0000 O   0  0  0  0  0  0  0  0  0  0  0  0
    0.7500   -1.2990    0.0000 C   0  0  0  0  0  0  0  0  0  0  0  0
    1.5000    0.0000    0.0000 C   0  0  0  0  0  0  0  0  0  0  0  0
    0.7500    1.2990    0.0000 C   0  0  0  0  0  0  0  0  0  0  0  0
   -0.7500    1.2990    0.0000 C   0  0  0  0  0  0  0  0  0  0  0  0
   -1.5000    0.0000    0.0000 C   0  0  0  0  0  0  0  0  0  0  0  0
   -0.7500   -1.2990    0.0000 C   0  0  0  0  0  0  0  0  0  0  0  0
  1  2  1  0
  2  3  2  0
  3  4  1  0
  4  5  2  0
  5  6  1  0
  6  7  2  0
  6  8  1  0
  8  9  1  0
  5 10  1  0
 10 11  1  0
 11 12  1  0
 12 13  1  0
 13 14  1  0
 14 15  1  0
 15  2  1  0
 15 10  1  0
M  END
>  <Title>  (739) 
idABCKgen7

$$$$

     RDKit          2D

 46 51  0  0  0  0  0  0  0  0999 V2000
  -12.7100   -7.5739    0.0000 C   0  0  0  0  0  0  0  0  0  0  0  0
  -11.5234   -6.6563    0.0000 C   0  0  0  0  0  0  0  0  0  0  0  0
  -10.1818   -7.3272    0.0000 C   0  0  0  0  0  0  0  0  0  0  0  0
   -8.8208   -6.6967    0.0000 C   0  0  0  0  0  0  0  0  0  0  0  0
   -8.4651   -5.2395    0.0000 C   0  0  0  0  0  0  0  0  0  0  0  0
   -6.9979   -4.9276    0.0000 C   0  0  0  0  0  0  0  0  0  0  0  0
   -6.5344   -3.5010    0.0000 C   0  0  0  0  0  0  0  0  0  0  0  0
   -7.5381   -2.3863    0.0000 O   0  0  0  0  0  0  0  0  0  0  0  0
   -5.0672   -3.1891    0.0000 N   0  0  0  0  0  0  0  0  0  0  0  0
   -4.6036   -1.7626    0.0000 C   0  0  0  0  0  0  0  0  0  0  0  0
   -5.4853   -0.5490    0.0000 N   0  0  0  0  0  0  0  0  0  0  0  0
   -4.6036    0.6645    0.0000 N   0  0  0  0  0  0  0  0  0  0  0  0
   -3.1771    0.2010    0.0000 N   0  0  0  0  0  0  0  0  0  0  0  0
   -3.1771   -1.2990    0.0000 N   0  0  0  0  0  0  0  0  0  0  0  0
   -1.9635   -2.1807    0.0000 C   0  0  0  0  0  0  0  0  0  0  0  0
   -2.4271   -3.6073    0.0000 C   0  0  0  0  0  0  0  0  0  0  0  0
   -1.9635   -5.0339    0.0000 C   0  0  0  0  0  0  0  0  0  0  0  0
   -0.7500   -5.9156    0.0000 C   0  0  0  0  0  0  0  0  0  0  0  0
   -1.2135   -7.3421    0.0000 C   0  0  0  0  0  0  0  0  0  0  0  0
   -0.2098   -8.4569    0.0000 O   0  0  0  0  0  0  0  0  0  0  0  0
   -2.6807   -7.6540    0.0000 N   0  0  0  0  0  0  0  0  0  0  0  0
   -3.1443   -9.0806    0.0000 O   0  0  0  0  0  0  0  0  0  0  0  0
    0.7500   -5.9156    0.0000 N   0  0  0  0  0  0  0  0  0  0  0  0
    1.9635   -5.0339    0.0000 C   0  0  0  0  0  0  0  0  0  0  0  0
    3.1771   -5.9156    0.0000 O   0  0  0  0  0  0  0  0  0  0  0  0
    2.4271   -3.6073    0.0000 C   0  0  0  0  0  0  0  0  0  0  0  0
    3.8943   -3.9192    0.0000 C   0  0  0  0  0  0  0  0  0  0  0  0
    4.8980   -2.8045    0.0000 C   0  0  0  0  0  0  0  0  0  0  0  0
    4.4344   -1.3779    0.0000 C   0  0  0  0  0  0  0  0  0  0  0  0
    5.4381   -0.2631    0.0000 C   0  0  0  0  0  0  0  0  0  0  0  0
    6.9054   -0.5750    0.0000 C   0  0  0  0  0  0  0  0  0  0  0  0
    7.9091    0.5397    0.0000 C   0  0  0  0  0  0  0  0  0  0  0  0
    7.4455    1.9663    0.0000 C   0  0  0  0  0  0  0  0  0  0  0  0
    5.9783    2.2782    0.0000 C   0  0  0  0  0  0  0  0  0  0  0  0
    4.9746    1.1634    0.0000 C   0  0  0  0  0  0  0  0  0  0  0  0
    2.9672   -1.0660    0.0000 C   0  0  0  0  0  0  0  0  0  0  0  0
    1.9635   -2.1807    0.0000 C   0  0  0  0  0  0  0  0  0  0  0  0
    0.7500   -1.2990    0.0000 C   0  0  0  0  0  0  0  0  0  0  0  0
    1.5000    0.0000    0.0000 C   0  0  0  0  0  0  0  0  0  0  0  0
    0.7500    1.2990    0.0000 C   0  0  0  0  0  0  0  0  0  0  0  0
   -0.7500    1.2990    0.0000 C   0  0  0  0  0  0  0  0  0  0  0  0
   -1.5000    0.0000    0.0000 C   0  0  0  0  0  0  0  0  0  0  0  0
   -0.7500   -1.2990    0.0000 C   0  0  0  0  0  0  0  0  0  0  0  0
   -9.3827   -4.0529    0.0000 C   0  0  0  0  0  0  0  0  0  0  0  0
  -10.8825   -4.0304    0.0000 C   0  0  0  0  0  0  0  0  0  0  0  0
  -11.8352   -5.1890    0.0000 C   0  0  0  0  0  0  0  0  0  0  0  0
  1  2  2  0
  2  3  1  0
  3  4  2  0
  4  5  1  0
  5  6  1  0
  6  7  1  0
  7  8  2  0
  7  9  1  0
  9 10  1  0
 10 11  2  0
 11 12  1  0
 12 13  2  0
 13 14  1  0
 14 15  1  0
 15 16  2  0
 16 17  1  0
 17 18  2  0
 18 19  1  0
 19 20  2  0
 19 21  1  0
 21 22  1  0
 18 23  1  0
 23 24  1  0
 24 25  2  0
 24 26  1  0
 26 27  2  0
 27 28  1  0
 28 29  2  0
 29 30  1  0
 30 31  2  0
 31 32  1  0
 32 33  2  0
 33 34  1  0
 34 35  2  0
 29 36  1  0
 36 37  2  0
 37 38  1  0
 38 39  2  0
 39 40  1  0
 40 41  2  0
 41 42  1  0
 42 43  2  0
  5 44  1  0
 44 45  1  0
 45 46  1  0
 46  2  1  0
 14 10  1  0
 43 15  1  0
 37 26  1  0
 43 38  1  0
 35 30  1  0
M  END
>  <Title>  (740) 
idABCLgen7

$$$$

     RDKit          2D

 31 35  0  0  0  0  0  0  0  0999 V2000
    3.0000    0.0000    0.0000 C   0  0  0  0  0  0  0  0  0  0  0  0
    1.5000    0.0000    0.0000 C   0  0  0  0  0  0  0  0  0  0  0  0
    0.7500    1.2990    0.0000 C   0  0  0  0  0  0  0  0  0  0  0  0
   -0.7500    1.2990    0.0000 C   0  0  0  0  0  0  0  0  0  0  0  0
   -1.5000    0.0000    0.0000 C   0  0  0  0  0  0  0  0  0  0  0  0
   -3.0000    0.0000    0.0000 C   0  0  0  0  0  0  0  0  0  0  0  0
   -3.8817   -1.2135    0.0000 N   0  0  0  0  0  0  0  0  0  0  0  0
   -5.3083   -0.7500    0.0000 N   0  0  0  0  0  0  0  0  0  0  0  0
   -5.3083    0.7500    0.0000 N   0  0  0  0  0  0  0  0  0  0  0  0
   -3.8817    1.2135    0.0000 N   0  0  0  0  0  0  0  0  0  0  0  0
   -3.4182    2.6401    0.0000 C   0  0  0  0  0  0  0  0  0  0  0  0
   -4.2998    3.8536    0.0000 C   0  0  0  0  0  0  0  0  0  0  0  0
   -3.4182    5.0672    0.0000 C   0  0  0  0  0  0  0  0  0  0  0  0
   -1.9916    4.6036    0.0000 C   0  0  0  0  0  0  0  0  0  0  0  0
   -0.7780    5.4853    0.0000 C   0  0  0  0  0  0  0  0  0  0  0  0
    0.5923    4.8752    0.0000 C   0  0  0  0  0  0  0  0  0  0  0  0
    1.8058    5.7569    0.0000 C   0  0  0  0  0  0  0  0  0  0  0  0
    1.6490    7.2487    0.0000 C   0  0  0  0  0  0  0  0  0  0  0  0
    2.8625    8.1303    0.0000 C   0  0  0  0  0  0  0  0  0  0  0  0
    4.2329    7.5202    0.0000 C   0  0  0  0  0  0  0  0  0  0  0  0
    5.4464    8.4019    0.0000 C   0  0  0  0  0  0  0  0  0  0  0  0
    5.2896    9.8937    0.0000 C   0  0  0  0  0  0  0  0  0  0  0  0
    3.9193   10.5038    0.0000 C   0  0  0  0  0  0  0  0  0  0  0  0
    2.7057    9.6221    0.0000 C   0  0  0  0  0  0  0  0  0  0  0  0
    0.2787    7.8588    0.0000 C   0  0  0  0  0  0  0  0  0  0  0  0
   -0.9348    6.9771    0.0000 C   0  0  0  0  0  0  0  0  0  0  0  0
   -1.9916    3.1036    0.0000 C   0  0  0  0  0  0  0  0  0  0  0  0
   -0.7780    2.2220    0.0000 O   0  0  0  0  0  0  0  0  0  0  0  0
   -0.7500   -1.2990    0.0000 C   0  0  0  0  0  0  0  0  0  0  0  0
   -1.5000   -2.5981    0.0000 O   0  0  0  0  0  0  0  0  0  0  0  0
    0.7500   -1.2990    0.0000 N   0  0  0  0  0  0  0  0  0  0  0  0
  1  2  1  0
  2  3  2  0
  3  4  1  0
  4  5  2  0
  5  6  1  0
  6  7  2  0
  7  8  1  0
  8  9  2  0
  9 10  1  0
 10 11  1  0
 11 12  2  0
 12 13  1  0
 13 14  2  0
 14 15  1  0
 15 16  2  0
 16 17  1  0
 17 18  2  0
 18 19  1  0
 19 20  2  0
 20 21  1  0
 21 22  2  0
 22 23  1  0
 23 24  2  0
 18 25  1  0
 25 26  1  0
 14 27  1  0
 27 28  2  0
  5 29  1  0
 29 30  2  0
 29 31  1  0
 31  2  1  0
 10  6  1  0
 27 11  1  0
 26 15  1  0
 24 19  1  0
M  END
>  <Title>  (741) 
idABCMgen7

$$$$

     RDKit          2D

 18 18  0  0  0  0  0  0  0  0999 V2000
    6.9271   -2.5981    0.0000 C   0  0  0  0  0  0  0  0  0  0  0  0
    6.1771   -1.2990    0.0000 C   0  0  0  0  0  0  0  0  0  0  0  0
    6.9271    0.0000    0.0000 O   0  0  0  0  0  0  0  0  0  0  0  0
    4.6771   -1.2990    0.0000 N   0  0  0  0  0  0  0  0  0  0  0  0
    3.9271    0.0000    0.0000 C   0  0  0  0  0  0  0  0  0  0  0  0
    4.6771    1.2990    0.0000 O   0  0  0  0  0  0  0  0  0  0  0  0
    2.4271    0.0000    0.0000 C   0  0  0  0  0  0  0  0  0  0  0  0
    1.9635   -1.4266    0.0000 C   0  0  0  0  0  0  0  0  0  0  0  0
    0.7500   -2.3083    0.0000 C   0  0  0  0  0  0  0  0  0  0  0  0
   -0.7500   -2.3083    0.0000 C   0  0  0  0  0  0  0  0  0  0  0  0
   -1.9635   -1.4266    0.0000 C   0  0  0  0  0  0  0  0  0  0  0  0
   -2.4271    0.0000    0.0000 C   0  0  0  0  0  0  0  0  0  0  0  0
   -1.9635    1.4266    0.0000 C   0  0  0  0  0  0  0  0  0  0  0  0
   -0.7500    2.3083    0.0000 C   0  0  0  0  0  0  0  0  0  0  0  0
   -1.2135    3.7348    0.0000 O   0  0  0  0  0  0  0  0  0  0  0  0
    0.7500    2.3083    0.0000 C   0  0  0  0  0  0  0  0  0  0  0  0
    1.2135    3.7348    0.0000 O   0  0  0  0  0  0  0  0  0  0  0  0
    1.9635    1.4266    0.0000 C   0  0  0  0  0  0  0  0  0  0  0  0
  1  2  1  0
  2  3  2  0
  2  4  1  0
  4  5  1  0
  5  6  2  0
  5  7  1  0
  7  8  1  0
  8  9  1  0
  9 10  2  0
 10 11  1  0
 11 12  2  0
 12 13  1  0
 13 14  2  0
 14 15  1  0
 14 16  1  0
 16 17  1  0
 16 18  1  0
 18  7  1  0
M  END
>  <Title>  (742) 
idABCNgen7

$$$$

     RDKit          2D

 31 35  0  0  0  0  0  0  0  0999 V2000
    3.0000    0.0000    0.0000 C   0  0  0  0  0  0  0  0  0  0  0  0
    1.5000    0.0000    0.0000 C   0  0  0  0  0  0  0  0  0  0  0  0
    0.7500    1.2990    0.0000 C   0  0  0  0  0  0  0  0  0  0  0  0
   -0.7500    1.2990    0.0000 C   0  0  0  0  0  0  0  0  0  0  0  0
   -1.5000    0.0000    0.0000 C   0  0  0  0  0  0  0  0  0  0  0  0
   -3.0000    0.0000    0.0000 C   0  0  0  0  0  0  0  0  0  0  0  0
   -3.8817   -1.2135    0.0000 N   0  0  0  0  0  0  0  0  0  0  0  0
   -5.3083   -0.7500    0.0000 N   0  0  0  0  0  0  0  0  0  0  0  0
   -5.3083    0.7500    0.0000 N   0  0  0  0  0  0  0  0  0  0  0  0
   -3.8817    1.2135    0.0000 N   0  0  0  0  0  0  0  0  0  0  0  0
   -3.4182    2.6401    0.0000 C   0  0  0  0  0  0  0  0  0  0  0  0
   -1.9509    2.9520    0.0000 C   0  0  0  0  0  0  0  0  0  0  0  0
   -1.4874    4.3786    0.0000 C   0  0  0  0  0  0  0  0  0  0  0  0
   -2.4911    5.4933    0.0000 C   0  0  0  0  0  0  0  0  0  0  0  0
   -2.0276    6.9199    0.0000 C   0  0  0  0  0  0  0  0  0  0  0  0
   -0.5604    7.2317    0.0000 C   0  0  0  0  0  0  0  0  0  0  0  0
   -0.0968    8.6583    0.0000 C   0  0  0  0  0  0  0  0  0  0  0  0
   -1.1005    9.7730    0.0000 C   0  0  0  0  0  0  0  0  0  0  0  0
   -0.6370   11.1996    0.0000 C   0  0  0  0  0  0  0  0  0  0  0  0
    0.8302   11.5115    0.0000 C   0  0  0  0  0  0  0  0  0  0  0  0
    1.2937   12.9381    0.0000 C   0  0  0  0  0  0  0  0  0  0  0  0
    0.2901   14.0528    0.0000 C   0  0  0  0  0  0  0  0  0  0  0  0
   -1.1772   13.7409    0.0000 C   0  0  0  0  0  0  0  0  0  0  0  0
   -1.6407   12.3143    0.0000 C   0  0  0  0  0  0  0  0  0  0  0  0
   -2.5677    9.4612    0.0000 C   0  0  0  0  0  0  0  0  0  0  0  0
   -3.0313    8.0346    0.0000 C   0  0  0  0  0  0  0  0  0  0  0  0
   -3.9583    5.1814    0.0000 C   0  0  0  0  0  0  0  0  0  0  0  0
   -4.4218    3.7548    0.0000 C   0  0  0  0  0  0  0  0  0  0  0  0
   -0.7500   -1.2990    0.0000 C   0  0  0  0  0  0  0  0  0  0  0  0
   -1.5000   -2.5981    0.0000 O   0  0  0  0  0  0  0  0  0  0  0  0
    0.7500   -1.2990    0.0000 N   0  0  0  0  0  0  0  0  0  0  0  0
  1  2  1  0
  2  3  2  0
  3  4  1  0
  4  5  2  0
  5  6  1  0
  6  7  2  0
  7  8  1  0
  8  9  2  0
  9 10  1  0
 10 11  1  0
 11 12  2  0
 12 13  1  0
 13 14  2  0
 14 15  1  0
 15 16  2  0
 16 17  1  0
 17 18  2  0
 18 19  1  0
 19 20  2  0
 20 21  1  0
 21 22  2  0
 22 23  1  0
 23 24  2  0
 18 25  1  0
 25 26  2  0
 14 27  1  0
 27 28  2  0
  5 29  1  0
 29 30  2  0
 29 31  1  0
 31  2  1  0
 10  6  1  0
 28 11  1  0
 26 15  1  0
 24 19  1  0
M  END
>  <Title>  (743) 
idABCOgen7

$$$$

     RDKit          2D

 12 13  0  0  0  0  0  0  0  0999 V2000
   -0.2487    5.6515    0.0000 O   0  0  0  0  0  0  0  0  0  0  0  0
    0.1935    4.2182    0.0000 C   0  0  0  0  0  0  0  0  0  0  0  0
    1.6559    3.8844    0.0000 C   0  0  0  0  0  0  0  0  0  0  0  0
    2.0980    2.4510    0.0000 C   0  0  0  0  0  0  0  0  0  0  0  0
    1.0777    1.3515    0.0000 C   0  0  0  0  0  0  0  0  0  0  0  0
    1.7286    0.0000    0.0000 C   0  0  0  0  0  0  0  0  0  0  0  0
    1.0777   -1.3515    0.0000 C   0  0  0  0  0  0  0  0  0  0  0  0
   -0.3846   -1.6852    0.0000 C   0  0  0  0  0  0  0  0  0  0  0  0
   -1.5574   -0.7500    0.0000 C   0  0  0  0  0  0  0  0  0  0  0  0
   -1.5574    0.7500    0.0000 C   0  0  0  0  0  0  0  0  0  0  0  0
   -0.3846    1.6852    0.0000 C   0  0  0  0  0  0  0  0  0  0  0  0
   -0.8268    3.1186    0.0000 C   0  0  0  0  0  0  0  0  0  0  0  0
  1  2  1  0
  2  3  2  0
  3  4  1  0
  4  5  2  0
  5  6  1  0
  6  7  2  0
  7  8  1  0
  8  9  2  0
  9 10  1  0
 10 11  2  0
 11 12  1  0
 12  2  1  0
 11  5  1  0
M  END
>  <Title>  (744) 
idABCPgen7

$$$$

     RDKit          2D

 30 34  0  0  0  0  0  0  0  0999 V2000
    3.0000    0.0000    0.0000 C   0  0  0  0  0  0  0  0  0  0  0  0
    1.5000    0.0000    0.0000 C   0  0  0  0  0  0  0  0  0  0  0  0
    0.7500    1.2990    0.0000 C   0  0  0  0  0  0  0  0  0  0  0  0
   -0.7500    1.2990    0.0000 C   0  0  0  0  0  0  0  0  0  0  0  0
   -1.5000    0.0000    0.0000 C   0  0  0  0  0  0  0  0  0  0  0  0
   -3.0000    0.0000    0.0000 C   0  0  0  0  0  0  0  0  0  0  0  0
   -3.8817   -1.2135    0.0000 N   0  0  0  0  0  0  0  0  0  0  0  0
   -5.3083   -0.7500    0.0000 N   0  0  0  0  0  0  0  0  0  0  0  0
   -5.3083    0.7500    0.0000 N   0  0  0  0  0  0  0  0  0  0  0  0
   -3.8817    1.2135    0.0000 N   0  0  0  0  0  0  0  0  0  0  0  0
   -3.4182    2.6401    0.0000 C   0  0  0  0  0  0  0  0  0  0  0  0
   -4.2998    3.8536    0.0000 C   0  0  0  0  0  0  0  0  0  0  0  0
   -3.4182    5.0672    0.0000 C   0  0  0  0  0  0  0  0  0  0  0  0
   -1.9916    4.6036    0.0000 C   0  0  0  0  0  0  0  0  0  0  0  0
   -0.7780    5.4853    0.0000 C   0  0  0  0  0  0  0  0  0  0  0  0
    0.6485    5.0218    0.0000 N   0  0  0  0  0  0  0  0  0  0  0  0
    1.5302    6.2353    0.0000 N   0  0  0  0  0  0  0  0  0  0  0  0
    0.6485    7.4488    0.0000 N   0  0  0  0  0  0  0  0  0  0  0  0
   -0.7780    6.9853    0.0000 N   0  0  0  0  0  0  0  0  0  0  0  0
   -1.9916    7.8670    0.0000 C   0  0  0  0  0  0  0  0  0  0  0  0
   -3.3619    7.2569    0.0000 C   0  0  0  0  0  0  0  0  0  0  0  0
   -4.5754    8.1386    0.0000 C   0  0  0  0  0  0  0  0  0  0  0  0
   -4.4186    9.6303    0.0000 C   0  0  0  0  0  0  0  0  0  0  0  0
   -3.0483   10.2405    0.0000 C   0  0  0  0  0  0  0  0  0  0  0  0
   -1.8348    9.3588    0.0000 C   0  0  0  0  0  0  0  0  0  0  0  0
   -1.9916    3.1036    0.0000 C   0  0  0  0  0  0  0  0  0  0  0  0
   -0.7780    2.2220    0.0000 O   0  0  0  0  0  0  0  0  0  0  0  0
   -0.7500   -1.2990    0.0000 C   0  0  0  0  0  0  0  0  0  0  0  0
   -1.5000   -2.5981    0.0000 O   0  0  0  0  0  0  0  0  0  0  0  0
    0.7500   -1.2990    0.0000 N   0  0  0  0  0  0  0  0  0  0  0  0
  1  2  1  0
  2  3  2  0
  3  4  1  0
  4  5  2  0
  5  6  1  0
  6  7  2  0
  7  8  1  0
  8  9  2  0
  9 10  1  0
 10 11  1  0
 11 12  2  0
 12 13  1  0
 13 14  2  0
 14 15  1  0
 15 16  2  0
 16 17  1  0
 17 18  2  0
 18 19  1  0
 19 20  1  0
 20 21  2  0
 21 22  1  0
 22 23  2  0
 23 24  1  0
 24 25  2  0
 14 26  1  0
 26 27  2  0
  5 28  1  0
 28 29  2  0
 28 30  1  0
 30  2  1  0
 10  6  1  0
 26 11  1  0
 19 15  1  0
 25 20  1  0
M  END
>  <Title>  (745) 
idABCQgen7

$$$$

     RDKit          2D

 32 36  0  0  0  0  0  0  0  0999 V2000
    3.0000    0.0000    0.0000 C   0  0  0  0  0  0  0  0  0  0  0  0
    1.5000    0.0000    0.0000 C   0  0  0  0  0  0  0  0  0  0  0  0
    0.7500   -1.2990    0.0000 C   0  0  0  0  0  0  0  0  0  0  0  0
   -0.7500   -1.2990    0.0000 C   0  0  0  0  0  0  0  0  0  0  0  0
   -1.5000    0.0000    0.0000 C   0  0  0  0  0  0  0  0  0  0  0  0
   -3.0000    0.0000    0.0000 C   0  0  0  0  0  0  0  0  0  0  0  0
   -3.8817   -1.2135    0.0000 C   0  0  0  0  0  0  0  0  0  0  0  0
   -5.3083   -0.7500    0.0000 N   0  0  0  0  0  0  0  0  0  0  0  0
   -5.3083    0.7500    0.0000 N   0  0  0  0  0  0  0  0  0  0  0  0
   -3.8817    1.2135    0.0000 N   0  0  0  0  0  0  0  0  0  0  0  0
   -3.4182    2.6401    0.0000 C   0  0  0  0  0  0  0  0  0  0  0  0
   -1.9509    2.9520    0.0000 C   0  0  0  0  0  0  0  0  0  0  0  0
   -1.4874    4.3786    0.0000 C   0  0  0  0  0  0  0  0  0  0  0  0
   -2.4911    5.4933    0.0000 C   0  0  0  0  0  0  0  0  0  0  0  0
   -2.0276    6.9199    0.0000 C   0  0  0  0  0  0  0  0  0  0  0  0
   -0.5604    7.2317    0.0000 C   0  0  0  0  0  0  0  0  0  0  0  0
   -0.0968    8.6583    0.0000 C   0  0  0  0  0  0  0  0  0  0  0  0
   -1.1005    9.7730    0.0000 C   0  0  0  0  0  0  0  0  0  0  0  0
   -2.5677    9.4612    0.0000 C   0  0  0  0  0  0  0  0  0  0  0  0
   -3.0313    8.0346    0.0000 C   0  0  0  0  0  0  0  0  0  0  0  0
   -3.9583    5.1814    0.0000 C   0  0  0  0  0  0  0  0  0  0  0  0
   -4.4218    3.7548    0.0000 C   0  0  0  0  0  0  0  0  0  0  0  0
   -5.8891    3.4430    0.0000 C   0  0  0  0  0  0  0  0  0  0  0  0
   -6.8928    4.5577    0.0000 C   0  0  0  0  0  0  0  0  0  0  0  0
   -8.3600    4.2458    0.0000 C   0  0  0  0  0  0  0  0  0  0  0  0
   -8.8235    2.8192    0.0000 C   0  0  0  0  0  0  0  0  0  0  0  0
  -10.2907    2.5074    0.0000 C   0  0  0  0  0  0  0  0  0  0  0  0
   -7.8198    1.7045    0.0000 C   0  0  0  0  0  0  0  0  0  0  0  0
   -8.2833    0.2779    0.0000 O   0  0  0  0  0  0  0  0  0  0  0  0
   -6.3526    2.0164    0.0000 N   0  0  0  0  0  0  0  0  0  0  0  0
   -0.7500    1.2990    0.0000 C   0  0  0  0  0  0  0  0  0  0  0  0
    0.7500    1.2990    0.0000 C   0  0  0  0  0  0  0  0  0  0  0  0
  1  2  1  0
  2  3  2  0
  3  4  1  0
  4  5  2  0
  5  6  1  0
  6  7  2  0
  7  8  1  0
  8  9  2  0
  9 10  1  0
 10 11  1  0
 11 12  2  0
 12 13  1  0
 13 14  2  0
 14 15  1  0
 15 16  2  0
 16 17  1  0
 17 18  2  0
 18 19  1  0
 19 20  2  0
 14 21  1  0
 21 22  2  0
 22 23  1  0
 23 24  2  0
 24 25  1  0
 25 26  2  0
 26 27  1  0
 26 28  1  0
 28 29  2  0
 28 30  1  0
  5 31  1  0
 31 32  2  0
 32  2  1  0
 10  6  1  0
 22 11  1  0
 30 23  1  0
 20 15  1  0
M  END
>  <Title>  (746) 
idABCRgen7

$$$$

     RDKit          2D

 37 42  0  0  0  0  0  0  0  0999 V2000
   -6.0000   -5.1962    0.0000 O   0  0  0  0  0  0  0  0  0  0  0  0
   -5.2500   -3.8971    0.0000 C   0  0  0  0  0  0  0  0  0  0  0  0
   -3.7500   -3.8971    0.0000 C   0  0  0  0  0  0  0  0  0  0  0  0
   -3.0000   -2.5981    0.0000 C   0  0  0  0  0  0  0  0  0  0  0  0
   -3.7500   -1.2990    0.0000 C   0  0  0  0  0  0  0  0  0  0  0  0
   -3.0000    0.0000    0.0000 C   0  0  0  0  0  0  0  0  0  0  0  0
   -3.7500    1.2990    0.0000 C   0  0  0  0  0  0  0  0  0  0  0  0
   -5.2418    1.4558    0.0000 N   0  0  0  0  0  0  0  0  0  0  0  0
   -5.5537    2.9231    0.0000 C   0  0  0  0  0  0  0  0  0  0  0  0
   -4.2546    3.6731    0.0000 N   0  0  0  0  0  0  0  0  0  0  0  0
   -3.1399    2.6694    0.0000 N   0  0  0  0  0  0  0  0  0  0  0  0
   -1.6727    2.9812    0.0000 C   0  0  0  0  0  0  0  0  0  0  0  0
   -0.6690    1.8665    0.0000 C   0  0  0  0  0  0  0  0  0  0  0  0
    0.7982    2.1784    0.0000 C   0  0  0  0  0  0  0  0  0  0  0  0
    1.2618    3.6050    0.0000 C   0  0  0  0  0  0  0  0  0  0  0  0
    0.2581    4.7197    0.0000 C   0  0  0  0  0  0  0  0  0  0  0  0
   -1.2091    4.4078    0.0000 C   0  0  0  0  0  0  0  0  0  0  0  0
   -2.2128    5.5225    0.0000 C   0  0  0  0  0  0  0  0  0  0  0  0
   -3.6801    5.2107    0.0000 C   0  0  0  0  0  0  0  0  0  0  0  0
   -4.6838    6.3254    0.0000 C   0  0  0  0  0  0  0  0  0  0  0  0
   -4.2202    7.7520    0.0000 C   0  0  0  0  0  0  0  0  0  0  0  0
   -2.7530    8.0638    0.0000 C   0  0  0  0  0  0  0  0  0  0  0  0
   -1.7493    6.9491    0.0000 C   0  0  0  0  0  0  0  0  0  0  0  0
   -0.2821    7.2610    0.0000 C   0  0  0  0  0  0  0  0  0  0  0  0
    0.1814    8.6876    0.0000 C   0  0  0  0  0  0  0  0  0  0  0  0
    1.6486    8.9994    0.0000 C   0  0  0  0  0  0  0  0  0  0  0  0
    2.6523    7.8847    0.0000 C   0  0  0  0  0  0  0  0  0  0  0  0
    4.1196    8.1966    0.0000 C   0  0  0  0  0  0  0  0  0  0  0  0
    4.5831    9.6232    0.0000 C   0  0  0  0  0  0  0  0  0  0  0  0
    6.0503    9.9350    0.0000 C   0  0  0  0  0  0  0  0  0  0  0  0
    7.0540    8.8203    0.0000 C   0  0  0  0  0  0  0  0  0  0  0  0
    6.5905    7.3937    0.0000 C   0  0  0  0  0  0  0  0  0  0  0  0
    5.1233    7.0819    0.0000 C   0  0  0  0  0  0  0  0  0  0  0  0
    2.1888    6.4581    0.0000 C   0  0  0  0  0  0  0  0  0  0  0  0
    0.7216    6.1463    0.0000 C   0  0  0  0  0  0  0  0  0  0  0  0
   -5.2500   -1.2990    0.0000 C   0  0  0  0  0  0  0  0  0  0  0  0
   -6.0000   -2.5981    0.0000 C   0  0  0  0  0  0  0  0  0  0  0  0
  1  2  1  0
  2  3  2  0
  3  4  1  0
  4  5  2  0
  5  6  1  0
  6  7  1  0
  7  8  2  0
  8  9  1  0
  9 10  2  0
 10 11  1  0
 11 12  1  0
 12 13  2  0
 13 14  1  0
 14 15  2  0
 15 16  1  0
 16 17  2  0
 17 18  1  0
 18 19  2  0
 19 20  1  0
 20 21  2  0
 21 22  1  0
 22 23  2  0
 23 24  1  0
 24 25  2  0
 25 26  1  0
 26 27  2  0
 27 28  1  0
 28 29  2  0
 29 30  1  0
 30 31  2  0
 31 32  1  0
 32 33  2  0
 27 34  1  0
 34 35  2  0
  5 36  1  0
 36 37  1  0
 37  2  1  0
 11  7  1  0
 17 12  1  0
 23 18  1  0
 35 24  1  0
 33 28  1  0
M  END
>  <Title>  (747) 
idABCSgen7

$$$$

     RDKit          2D

 37 41  0  0  0  0  0  0  0  0999 V2000
    3.7500   -1.2990    0.0000 C   0  0  0  0  0  0  0  0  0  0  0  0
    3.0000    0.0000    0.0000 O   0  0  0  0  0  0  0  0  0  0  0  0
    1.5000    0.0000    0.0000 C   0  0  0  0  0  0  0  0  0  0  0  0
    0.7500   -1.2990    0.0000 C   0  0  0  0  0  0  0  0  0  0  0  0
   -0.7500   -1.2990    0.0000 C   0  0  0  0  0  0  0  0  0  0  0  0
   -1.5000    0.0000    0.0000 C   0  0  0  0  0  0  0  0  0  0  0  0
   -3.0000    0.0000    0.0000 C   0  0  0  0  0  0  0  0  0  0  0  0
   -3.7500   -1.2990    0.0000 O   0  0  0  0  0  0  0  0  0  0  0  0
   -3.7500    1.2990    0.0000 N   0  0  0  0  0  0  0  0  0  0  0  0
   -5.2500    1.2990    0.0000 C   0  0  0  0  0  0  0  0  0  0  0  0
   -6.1317    0.0855    0.0000 N   0  0  0  0  0  0  0  0  0  0  0  0
   -7.5583    0.5490    0.0000 N   0  0  0  0  0  0  0  0  0  0  0  0
   -7.5583    2.0490    0.0000 N   0  0  0  0  0  0  0  0  0  0  0  0
   -6.1317    2.5126    0.0000 N   0  0  0  0  0  0  0  0  0  0  0  0
   -5.6682    3.9391    0.0000 C   0  0  0  0  0  0  0  0  0  0  0  0
   -4.2009    4.2510    0.0000 C   0  0  0  0  0  0  0  0  0  0  0  0
   -3.7374    5.6776    0.0000 C   0  0  0  0  0  0  0  0  0  0  0  0
   -4.7411    6.7923    0.0000 C   0  0  0  0  0  0  0  0  0  0  0  0
   -4.2776    8.2189    0.0000 C   0  0  0  0  0  0  0  0  0  0  0  0
   -5.2813    9.3336    0.0000 O   0  0  0  0  0  0  0  0  0  0  0  0
   -2.8104    8.5308    0.0000 N   0  0  0  0  0  0  0  0  0  0  0  0
   -2.3468    9.9574    0.0000 C   0  0  0  0  0  0  0  0  0  0  0  0
   -3.2285   11.1709    0.0000 N   0  0  0  0  0  0  0  0  0  0  0  0
   -2.3468   12.3844    0.0000 N   0  0  0  0  0  0  0  0  0  0  0  0
   -0.9202   11.9209    0.0000 N   0  0  0  0  0  0  0  0  0  0  0  0
   -0.9202   10.4209    0.0000 N   0  0  0  0  0  0  0  0  0  0  0  0
    0.2933    9.5392    0.0000 C   0  0  0  0  0  0  0  0  0  0  0  0
    0.1365    8.0474    0.0000 C   0  0  0  0  0  0  0  0  0  0  0  0
    1.3500    7.1657    0.0000 C   0  0  0  0  0  0  0  0  0  0  0  0
    2.7203    7.7758    0.0000 C   0  0  0  0  0  0  0  0  0  0  0  0
    2.8771    9.2676    0.0000 C   0  0  0  0  0  0  0  0  0  0  0  0
    1.6636   10.1493    0.0000 C   0  0  0  0  0  0  0  0  0  0  0  0
   -6.2083    6.4805    0.0000 C   0  0  0  0  0  0  0  0  0  0  0  0
   -6.6718    5.0539    0.0000 C   0  0  0  0  0  0  0  0  0  0  0  0
   -0.7500    1.2990    0.0000 C   0  0  0  0  0  0  0  0  0  0  0  0
    0.7500    1.2990    0.0000 C   0  0  0  0  0  0  0  0  0  0  0  0
    1.5000    2.5981    0.0000 C   0  0  0  0  0  0  0  0  0  0  0  0
  1  2  1  0
  2  3  1  0
  3  4  2  0
  4  5  1  0
  5  6  2  0
  6  7  1  0
  7  8  2  0
  7  9  1  0
  9 10  1  0
 10 11  2  0
 11 12  1  0
 12 13  2  0
 13 14  1  0
 14 15  1  0
 15 16  2  0
 16 17  1  0
 17 18  2  0
 18 19  1  0
 19 20  2  0
 19 21  1  0
 21 22  1  0
 22 23  2  0
 23 24  1  0
 24 25  2  0
 25 26  1  0
 26 27  1  0
 27 28  2  0
 28 29  1  0
 29 30  2  0
 30 31  1  0
 31 32  2  0
 18 33  1  0
 33 34  2  0
  6 35  1  0
 35 36  2  0
 36 37  1  0
 36  3  1  0
 14 10  1  0
 34 15  1  0
 26 22  1  0
 32 27  1  0
M  END
>  <Title>  (748) 
idABCTgen7

$$$$

     RDKit          2D

 16 16  0  0  0  0  0  0  0  0999 V2000
    6.9271    2.5981    0.0000 C   0  0  0  0  0  0  0  0  0  0  0  0
    6.1771    1.2990    0.0000 C   0  0  0  0  0  0  0  0  0  0  0  0
    6.9271    0.0000    0.0000 C   0  0  0  0  0  0  0  0  0  0  0  0
    4.6771    1.2990    0.0000 C   0  0  0  0  0  0  0  0  0  0  0  0
    3.9271    0.0000    0.0000 C   0  0  0  0  0  0  0  0  0  0  0  0
    4.6771   -1.2990    0.0000 C   0  0  0  0  0  0  0  0  0  0  0  0
    2.4271    0.0000    0.0000 C   0  0  0  0  0  0  0  0  0  0  0  0
    1.9635   -1.4266    0.0000 C   0  0  0  0  0  0  0  0  0  0  0  0
    0.7500   -2.3083    0.0000 C   0  0  0  0  0  0  0  0  0  0  0  0
   -0.7500   -2.3083    0.0000 C   0  0  0  0  0  0  0  0  0  0  0  0
   -1.9635   -1.4266    0.0000 C   0  0  0  0  0  0  0  0  0  0  0  0
   -2.4271    0.0000    0.0000 C   0  0  0  0  0  0  0  0  0  0  0  0
   -1.9635    1.4266    0.0000 C   0  0  0  0  0  0  0  0  0  0  0  0
   -0.7500    2.3083    0.0000 C   0  0  0  0  0  0  0  0  0  0  0  0
    0.7500    2.3083    0.0000 C   0  0  0  0  0  0  0  0  0  0  0  0
    1.9635    1.4266    0.0000 C   0  0  0  0  0  0  0  0  0  0  0  0
  1  2  1  0
  2  3  1  0
  2  4  1  0
  4  5  1  0
  5  6  1  0
  5  7  1  0
  7  8  2  0
  8  9  1  0
  9 10  2  0
 10 11  1  0
 11 12  2  0
 12 13  1  0
 13 14  2  0
 14 15  1  0
 15 16  2  0
 16  7  1  0
M  END
>  <Title>  (749) 
idABCUgen7

$$$$

     RDKit          2D

 17 17  0  0  0  0  0  0  0  0999 V2000
    3.9271   -5.1962    0.0000 C   0  0  0  0  0  0  0  0  0  0  0  0
    4.6771   -3.8971    0.0000 C   0  0  0  0  0  0  0  0  0  0  0  0
    6.1771   -3.8971    0.0000 C   0  0  0  0  0  0  0  0  0  0  0  0
    3.9271   -2.5981    0.0000 C   0  0  0  0  0  0  0  0  0  0  0  0
    4.6771   -1.2990    0.0000 C   0  0  0  0  0  0  0  0  0  0  0  0
    6.1771   -1.2990    0.0000 C   0  0  0  0  0  0  0  0  0  0  0  0
    3.9271    0.0000    0.0000 C   0  0  0  0  0  0  0  0  0  0  0  0
    2.4271    0.0000    0.0000 C   0  0  0  0  0  0  0  0  0  0  0  0
    1.9635   -1.4266    0.0000 C   0  0  0  0  0  0  0  0  0  0  0  0
    0.7500   -2.3083    0.0000 C   0  0  0  0  0  0  0  0  0  0  0  0
   -0.7500   -2.3083    0.0000 C   0  0  0  0  0  0  0  0  0  0  0  0
   -1.9635   -1.4266    0.0000 C   0  0  0  0  0  0  0  0  0  0  0  0
   -2.4271    0.0000    0.0000 C   0  0  0  0  0  0  0  0  0  0  0  0
   -1.9635    1.4266    0.0000 C   0  0  0  0  0  0  0  0  0  0  0  0
   -0.7500    2.3083    0.0000 C   0  0  0  0  0  0  0  0  0  0  0  0
    0.7500    2.3083    0.0000 C   0  0  0  0  0  0  0  0  0  0  0  0
    1.9635    1.4266    0.0000 C   0  0  0  0  0  0  0  0  0  0  0  0
  1  2  1  0
  2  3  1  0
  2  4  1  0
  4  5  1  0
  5  6  1  0
  5  7  1  0
  7  8  1  0
  8  9  1  0
  9 10  1  0
 10 11  1  0
 11 12  1  0
 12 13  1  0
 13 14  1  0
 14 15  1  0
 15 16  1  0
 16 17  1  0
 17  8  1  0
M  END
>  <Title>  (750) 
idABCVgen7

$$$$

     RDKit          2D

 36 41  0  0  0  0  0  0  0  0999 V2000
    3.0000    0.0000    0.0000 C   0  0  0  0  0  0  0  0  0  0  0  0
    1.5000    0.0000    0.0000 C   0  0  0  0  0  0  0  0  0  0  0  0
    0.7500   -1.2990    0.0000 C   0  0  0  0  0  0  0  0  0  0  0  0
   -0.7500   -1.2990    0.0000 C   0  0  0  0  0  0  0  0  0  0  0  0
   -1.5000    0.0000    0.0000 C   0  0  0  0  0  0  0  0  0  0  0  0
   -3.0000    0.0000    0.0000 C   0  0  0  0  0  0  0  0  0  0  0  0
   -3.8817   -1.2135    0.0000 N   0  0  0  0  0  0  0  0  0  0  0  0
   -5.3083   -0.7500    0.0000 N   0  0  0  0  0  0  0  0  0  0  0  0
   -5.3083    0.7500    0.0000 N   0  0  0  0  0  0  0  0  0  0  0  0
   -3.8817    1.2135    0.0000 N   0  0  0  0  0  0  0  0  0  0  0  0
   -3.4182    2.6401    0.0000 C   0  0  0  0  0  0  0  0  0  0  0  0
   -1.9509    2.9520    0.0000 C   0  0  0  0  0  0  0  0  0  0  0  0
   -1.4874    4.3786    0.0000 C   0  0  0  0  0  0  0  0  0  0  0  0
   -2.4911    5.4933    0.0000 C   0  0  0  0  0  0  0  0  0  0  0  0
   -2.0276    6.9199    0.0000 C   0  0  0  0  0  0  0  0  0  0  0  0
   -0.5604    7.2317    0.0000 C   0  0  0  0  0  0  0  0  0  0  0  0
   -0.0968    8.6583    0.0000 C   0  0  0  0  0  0  0  0  0  0  0  0
   -1.1005    9.7730    0.0000 C   0  0  0  0  0  0  0  0  0  0  0  0
   -0.6370   11.1996    0.0000 C   0  0  0  0  0  0  0  0  0  0  0  0
    0.8302   11.5115    0.0000 C   0  0  0  0  0  0  0  0  0  0  0  0
    1.2937   12.9381    0.0000 C   0  0  0  0  0  0  0  0  0  0  0  0
    0.2901   14.0528    0.0000 C   0  0  0  0  0  0  0  0  0  0  0  0
   -1.1772   13.7409    0.0000 C   0  0  0  0  0  0  0  0  0  0  0  0
   -1.6407   12.3143    0.0000 C   0  0  0  0  0  0  0  0  0  0  0  0
   -2.5677    9.4612    0.0000 C   0  0  0  0  0  0  0  0  0  0  0  0
   -3.0313    8.0346    0.0000 C   0  0  0  0  0  0  0  0  0  0  0  0
   -4.4985    7.7227    0.0000 C   0  0  0  0  0  0  0  0  0  0  0  0
   -5.5022    8.8374    0.0000 C   0  0  0  0  0  0  0  0  0  0  0  0
   -6.9694    8.5256    0.0000 C   0  0  0  0  0  0  0  0  0  0  0  0
   -7.4329    7.0990    0.0000 C   0  0  0  0  0  0  0  0  0  0  0  0
   -6.4292    5.9843    0.0000 C   0  0  0  0  0  0  0  0  0  0  0  0
   -4.9620    6.2961    0.0000 C   0  0  0  0  0  0  0  0  0  0  0  0
   -3.9583    5.1814    0.0000 C   0  0  0  0  0  0  0  0  0  0  0  0
   -4.4218    3.7548    0.0000 C   0  0  0  0  0  0  0  0  0  0  0  0
   -0.7500    1.2990    0.0000 C   0  0  0  0  0  0  0  0  0  0  0  0
    0.7500    1.2990    0.0000 C   0  0  0  0  0  0  0  0  0  0  0  0
  1  2  1  0
  2  3  2  0
  3  4  1  0
  4  5  2  0
  5  6  1  0
  6  7  2  0
  7  8  1  0
  8  9  2  0
  9 10  1  0
 10 11  1  0
 11 12  2  0
 12 13  1  0
 13 14  2  0
 14 15  1  0
 15 16  2  0
 16 17  1  0
 17 18  2  0
 18 19  1  0
 19 20  2  0
 20 21  1  0
 21 22  2  0
 22 23  1  0
 23 24  2  0
 18 25  1  0
 25 26  2  0
 26 27  1  0
 27 28  2  0
 28 29  1  0
 29 30  2  0
 30 31  1  0
 31 32  2  0
 14 33  1  0
 33 34  2  0
  5 35  1  0
 35 36  2  0
 36  2  1  0
 10  6  1  0
 34 11  1  0
 26 15  1  0
 32 27  1  0
 24 19  1  0
M  END
>  <Title>  (751) 
idABCWgen7

$$$$

     RDKit          2D

 13 13  0  0  0  0  0  0  0  0999 V2000
    5.2500   -1.2990    0.0000 C   0  0  0  0  0  0  0  0  0  0  0  0
    3.7500   -1.2990    0.0000 C   0  0  0  0  0  0  0  0  0  0  0  0
    3.0000   -2.5981    0.0000 O   0  0  0  0  0  0  0  0  0  0  0  0
    3.0000    0.0000    0.0000 O   0  0  0  0  0  0  0  0  0  0  0  0
    1.5000    0.0000    0.0000 C   0  0  0  0  0  0  0  0  0  0  0  0
    0.7500   -1.2990    0.0000 C   0  0  0  0  0  0  0  0  0  0  0  0
   -0.7500   -1.2990    0.0000 C   0  0  0  0  0  0  0  0  0  0  0  0
   -1.5000    0.0000    0.0000 C   0  0  0  0  0  0  0  0  0  0  0  0
   -3.0000    0.0000    0.0000 C   0  0  0  0  0  0  0  0  0  0  0  0
   -3.7500    1.2990    0.0000 O   0  0  0  0  0  0  0  0  0  0  0  0
   -0.7500    1.2990    0.0000 N   0  0  0  0  0  0  0  0  0  0  0  0
    0.7500    1.2990    0.0000 C   0  0  0  0  0  0  0  0  0  0  0  0
    1.5000    2.5981    0.0000 C   0  0  0  0  0  0  0  0  0  0  0  0
  1  2  1  0
  2  3  2  0
  2  4  1  0
  4  5  1  0
  5  6  2  0
  6  7  1  0
  7  8  2  0
  8  9  1  0
  9 10  1  0
  8 11  1  0
 11 12  2  0
 12 13  1  0
 12  5  1  0
M  END
>  <Title>  (752) 
idABCXgen7

$$$$

     RDKit          2D

 31 31  0  0  0  0  0  0  0  0999 V2000
    8.6751   -0.0000    0.0000 C   0  0  0  0  0  0  0  0  0  0  0  0
    7.1751    0.0000    0.0000 C   0  0  0  0  0  0  0  0  0  0  0  0
    7.0183   -1.4918    0.0000 C   0  0  0  0  0  0  0  0  0  0  0  0
    6.5548   -2.9184    0.0000 C   0  0  0  0  0  0  0  0  0  0  0  0
    5.8048   -4.2174    0.0000 C   0  0  0  0  0  0  0  0  0  0  0  0
    4.8011   -5.3321    0.0000 C   0  0  0  0  0  0  0  0  0  0  0  0
    3.5875   -6.2138    0.0000 C   0  0  0  0  0  0  0  0  0  0  0  0
    2.2172   -6.8239    0.0000 C   0  0  0  0  0  0  0  0  0  0  0  0
    0.7500   -7.1358    0.0000 C   0  0  0  0  0  0  0  0  0  0  0  0
   -0.7500   -7.1358    0.0000 C   0  0  0  0  0  0  0  0  0  0  0  0
   -2.2172   -6.8239    0.0000 C   0  0  0  0  0  0  0  0  0  0  0  0
   -3.5875   -6.2138    0.0000 C   0  0  0  0  0  0  0  0  0  0  0  0
   -4.8011   -5.3321    0.0000 C   0  0  0  0  0  0  0  0  0  0  0  0
   -5.8048   -4.2174    0.0000 C   0  0  0  0  0  0  0  0  0  0  0  0
   -6.5548   -2.9184    0.0000 C   0  0  0  0  0  0  0  0  0  0  0  0
   -7.0183   -1.4918    0.0000 C   0  0  0  0  0  0  0  0  0  0  0  0
   -7.1751    0.0000    0.0000 C   0  0  0  0  0  0  0  0  0  0  0  0
   -7.0183    1.4918    0.0000 C   0  0  0  0  0  0  0  0  0  0  0  0
   -6.5548    2.9184    0.0000 C   0  0  0  0  0  0  0  0  0  0  0  0
   -5.8048    4.2174    0.0000 C   0  0  0  0  0  0  0  0  0  0  0  0
   -4.8011    5.3321    0.0000 C   0  0  0  0  0  0  0  0  0  0  0  0
   -3.5875    6.2138    0.0000 C   0  0  0  0  0  0  0  0  0  0  0  0
   -2.2172    6.8239    0.0000 C   0  0  0  0  0  0  0  0  0  0  0  0
   -0.7500    7.1358    0.0000 C   0  0  0  0  0  0  0  0  0  0  0  0
    0.7500    7.1358    0.0000 C   0  0  0  0  0  0  0  0  0  0  0  0
    2.2172    6.8239    0.0000 C   0  0  0  0  0  0  0  0  0  0  0  0
    3.5875    6.2138    0.0000 C   0  0  0  0  0  0  0  0  0  0  0  0
    4.8011    5.3321    0.0000 C   0  0  0  0  0  0  0  0  0  0  0  0
    5.8048    4.2174    0.0000 C   0  0  0  0  0  0  0  0  0  0  0  0
    6.5548    2.9184    0.0000 C   0  0  0  0  0  0  0  0  0  0  0  0
    7.0183    1.4918    0.0000 C   0  0  0  0  0  0  0  0  0  0  0  0
  1  2  1  0
  2  3  2  0
  3  4  1  0
  4  5  2  0
  5  6  1  0
  6  7  2  0
  7  8  1  0
  8  9  2  0
  9 10  1  0
 10 11  2  0
 11 12  1  0
 12 13  2  0
 13 14  1  0
 14 15  2  0
 15 16  1  0
 16 17  2  0
 17 18  1  0
 18 19  2  0
 19 20  1  0
 20 21  2  0
 21 22  1  0
 22 23  2  0
 23 24  1  0
 24 25  2  0
 25 26  1  0
 26 27  2  0
 27 28  1  0
 28 29  2  0
 29 30  1  0
 30 31  2  0
 31  2  1  0
M  END
>  <Title>  (753) 
idABCYgen7

$$$$

     RDKit          2D

 50 56  0  0  0  0  0  0  0  0999 V2000
    3.0000    0.0000    0.0000 C   0  0  0  0  0  0  0  0  0  0  0  0
    1.5000    0.0000    0.0000 C   0  0  0  0  0  0  0  0  0  0  0  0
    0.7500   -1.2990    0.0000 C   0  0  0  0  0  0  0  0  0  0  0  0
   -0.7500   -1.2990    0.0000 C   0  0  0  0  0  0  0  0  0  0  0  0
   -1.5000    0.0000    0.0000 C   0  0  0  0  0  0  0  0  0  0  0  0
   -3.0000    0.0000    0.0000 C   0  0  0  0  0  0  0  0  0  0  0  0
   -3.7500   -1.2990    0.0000 O   0  0  0  0  0  0  0  0  0  0  0  0
   -3.7500    1.2990    0.0000 N   0  0  0  0  0  0  0  0  0  0  0  0
   -5.2500    1.2990    0.0000 C   0  0  0  0  0  0  0  0  0  0  0  0
   -6.1317    0.0855    0.0000 N   0  0  0  0  0  0  0  0  0  0  0  0
   -7.5583    0.5490    0.0000 N   0  0  0  0  0  0  0  0  0  0  0  0
   -7.5583    2.0490    0.0000 N   0  0  0  0  0  0  0  0  0  0  0  0
   -6.1317    2.5126    0.0000 N   0  0  0  0  0  0  0  0  0  0  0  0
   -5.6682    3.9391    0.0000 C   0  0  0  0  0  0  0  0  0  0  0  0
   -4.2009    4.2510    0.0000 C   0  0  0  0  0  0  0  0  0  0  0  0
   -3.7374    5.6776    0.0000 C   0  0  0  0  0  0  0  0  0  0  0  0
   -4.7411    6.7923    0.0000 C   0  0  0  0  0  0  0  0  0  0  0  0
   -4.2776    8.2189    0.0000 C   0  0  0  0  0  0  0  0  0  0  0  0
   -5.2813    9.3336    0.0000 O   0  0  0  0  0  0  0  0  0  0  0  0
   -2.8104    8.5308    0.0000 N   0  0  0  0  0  0  0  0  0  0  0  0
   -2.3468    9.9574    0.0000 C   0  0  0  0  0  0  0  0  0  0  0  0
   -3.2285   11.1709    0.0000 N   0  0  0  0  0  0  0  0  0  0  0  0
   -2.3468   12.3844    0.0000 N   0  0  0  0  0  0  0  0  0  0  0  0
   -0.9202   11.9209    0.0000 N   0  0  0  0  0  0  0  0  0  0  0  0
   -0.9202   10.4209    0.0000 N   0  0  0  0  0  0  0  0  0  0  0  0
    0.2933    9.5392    0.0000 C   0  0  0  0  0  0  0  0  0  0  0  0
    0.1365    8.0474    0.0000 C   0  0  0  0  0  0  0  0  0  0  0  0
    1.3500    7.1657    0.0000 C   0  0  0  0  0  0  0  0  0  0  0  0
    2.7203    7.7758    0.0000 C   0  0  0  0  0  0  0  0  0  0  0  0
    3.9339    6.8942    0.0000 C   0  0  0  0  0  0  0  0  0  0  0  0
    3.7771    5.4024    0.0000 C   0  0  0  0  0  0  0  0  0  0  0  0
    4.9906    4.5207    0.0000 C   0  0  0  0  0  0  0  0  0  0  0  0
    6.3609    5.1308    0.0000 C   0  0  0  0  0  0  0  0  0  0  0  0
    6.5177    6.6226    0.0000 C   0  0  0  0  0  0  0  0  0  0  0  0
    5.3042    7.5043    0.0000 C   0  0  0  0  0  0  0  0  0  0  0  0
    2.8771    9.2676    0.0000 C   0  0  0  0  0  0  0  0  0  0  0  0
    1.6636   10.1493    0.0000 C   0  0  0  0  0  0  0  0  0  0  0  0
   -6.2083    6.4805    0.0000 C   0  0  0  0  0  0  0  0  0  0  0  0
   -6.6718    5.0539    0.0000 C   0  0  0  0  0  0  0  0  0  0  0  0
   -8.1391    4.7420    0.0000 C   0  0  0  0  0  0  0  0  0  0  0  0
   -9.1428    5.8567    0.0000 C   0  0  0  0  0  0  0  0  0  0  0  0
  -10.6100    5.5448    0.0000 C   0  0  0  0  0  0  0  0  0  0  0  0
  -11.0735    4.1183    0.0000 C   0  0  0  0  0  0  0  0  0  0  0  0
  -12.5407    3.8064    0.0000 C   0  0  0  0  0  0  0  0  0  0  0  0
  -10.0698    3.0035    0.0000 C   0  0  0  0  0  0  0  0  0  0  0  0
  -10.5333    1.5770    0.0000 O   0  0  0  0  0  0  0  0  0  0  0  0
   -8.6026    3.3154    0.0000 N   0  0  0  0  0  0  0  0  0  0  0  0
   -0.7500    1.2990    0.0000 C   0  0  0  0  0  0  0  0  0  0  0  0
   -1.5000    2.5981    0.0000 O   0  0  0  0  0  0  0  0  0  0  0  0
    0.7500    1.2990    0.0000 N   0  0  0  0  0  0  0  0  0  0  0  0
  1  2  1  0
  2  3  2  0
  3  4  1  0
  4  5  2  0
  5  6  1  0
  6  7  2  0
  6  8  1  0
  8  9  1  0
  9 10  2  0
 10 11  1  0
 11 12  2  0
 12 13  1  0
 13 14  1  0
 14 15  2  0
 15 16  1  0
 16 17  2  0
 17 18  1  0
 18 19  2  0
 18 20  1  0
 20 21  1  0
 21 22  2  0
 22 23  1  0
 23 24  2  0
 24 25  1  0
 25 26  1  0
 26 27  2  0
 27 28  1  0
 28 29  2  0
 29 30  1  0
 30 31  2  0
 31 32  1  0
 32 33  2  0
 33 34  1  0
 34 35  2  0
 29 36  1  0
 36 37  2  0
 17 38  1  0
 38 39  2  0
 39 40  1  0
 40 41  2  0
 41 42  1  0
 42 43  2  0
 43 44  1  0
 43 45  1  0
 45 46  2  0
 45 47  1  0
  5 48  1  0
 48 49  2  0
 48 50  1  0
 50  2  1  0
 13  9  1  0
 39 14  1  0
 47 40  1  0
 25 21  1  0
 37 26  1  0
 35 30  1  0
M  END
>  <Title>  (754) 
idABCZgen7

$$$$

     RDKit          2D

 36 36  0  0  0  0  0  0  0  0999 V2000
    9.6285    0.0000    0.0000 C   0  0  0  0  0  0  0  0  0  0  0  0
    8.1285    0.0000    0.0000 C   0  0  0  0  0  0  0  0  0  0  0  0
    7.9901   -1.4936    0.0000 C   0  0  0  0  0  0  0  0  0  0  0  0
    7.5796   -2.9363    0.0000 C   0  0  0  0  0  0  0  0  0  0  0  0
    6.9110   -4.2791    0.0000 C   0  0  0  0  0  0  0  0  0  0  0  0
    6.0070   -5.4761    0.0000 C   0  0  0  0  0  0  0  0  0  0  0  0
    4.8985   -6.4867    0.0000 C   0  0  0  0  0  0  0  0  0  0  0  0
    3.6232   -7.2763    0.0000 C   0  0  0  0  0  0  0  0  0  0  0  0
    2.2245   -7.8182    0.0000 C   0  0  0  0  0  0  0  0  0  0  0  0
    0.7500   -8.0938    0.0000 C   0  0  0  0  0  0  0  0  0  0  0  0
   -0.7500   -8.0938    0.0000 C   0  0  0  0  0  0  0  0  0  0  0  0
   -2.2245   -7.8182    0.0000 C   0  0  0  0  0  0  0  0  0  0  0  0
   -3.6232   -7.2763    0.0000 C   0  0  0  0  0  0  0  0  0  0  0  0
   -4.8985   -6.4867    0.0000 C   0  0  0  0  0  0  0  0  0  0  0  0
   -6.0070   -5.4761    0.0000 C   0  0  0  0  0  0  0  0  0  0  0  0
   -6.9110   -4.2791    0.0000 C   0  0  0  0  0  0  0  0  0  0  0  0
   -7.5796   -2.9363    0.0000 C   0  0  0  0  0  0  0  0  0  0  0  0
   -7.9901   -1.4936    0.0000 C   0  0  0  0  0  0  0  0  0  0  0  0
   -8.1285    0.0000    0.0000 C   0  0  0  0  0  0  0  0  0  0  0  0
   -7.9901    1.4936    0.0000 C   0  0  0  0  0  0  0  0  0  0  0  0
   -7.5796    2.9363    0.0000 C   0  0  0  0  0  0  0  0  0  0  0  0
   -6.9110    4.2791    0.0000 C   0  0  0  0  0  0  0  0  0  0  0  0
   -6.0070    5.4761    0.0000 C   0  0  0  0  0  0  0  0  0  0  0  0
   -4.8985    6.4867    0.0000 C   0  0  0  0  0  0  0  0  0  0  0  0
   -3.6232    7.2763    0.0000 C   0  0  0  0  0  0  0  0  0  0  0  0
   -2.2245    7.8182    0.0000 C   0  0  0  0  0  0  0  0  0  0  0  0
   -0.7500    8.0938    0.0000 C   0  0  0  0  0  0  0  0  0  0  0  0
    0.7500    8.0938    0.0000 C   0  0  0  0  0  0  0  0  0  0  0  0
    2.2245    7.8182    0.0000 C   0  0  0  0  0  0  0  0  0  0  0  0
    2.6350    9.2609    0.0000 C   0  0  0  0  0  0  0  0  0  0  0  0
    3.6232    7.2763    0.0000 C   0  0  0  0  0  0  0  0  0  0  0  0
    4.8985    6.4867    0.0000 C   0  0  0  0  0  0  0  0  0  0  0  0
    6.0070    5.4761    0.0000 C   0  0  0  0  0  0  0  0  0  0  0  0
    6.9110    4.2791    0.0000 C   0  0  0  0  0  0  0  0  0  0  0  0
    7.5796    2.9363    0.0000 C   0  0  0  0  0  0  0  0  0  0  0  0
    7.9901    1.4936    0.0000 C   0  0  0  0  0  0  0  0  0  0  0  0
  1  2  1  0
  2  3  2  0
  3  4  1  0
  4  5  2  0
  5  6  1  0
  6  7  2  0
  7  8  1  0
  8  9  2  0
  9 10  1  0
 10 11  2  0
 11 12  1  0
 12 13  2  0
 13 14  1  0
 14 15  2  0
 15 16  1  0
 16 17  2  0
 17 18  1  0
 18 19  2  0
 19 20  1  0
 20 21  2  0
 21 22  1  0
 22 23  2  0
 23 24  1  0
 24 25  2  0
 25 26  1  0
 26 27  2  0
 27 28  1  0
 28 29  2  0
 29 30  1  0
 29 31  1  0
 31 32  2  0
 32 33  1  0
 33 34  2  0
 34 35  1  0
 35 36  2  0
 36  2  1  0
M  END
>  <Title>  (755) 
idABDAgen7

$$$$

     RDKit          2D

 27 29  0  0  0  0  0  0  0  0999 V2000
    3.7500   -1.2990    0.0000 C   0  0  0  0  0  0  0  0  0  0  0  0
    3.0000    0.0000    0.0000 O   0  0  0  0  0  0  0  0  0  0  0  0
    1.5000    0.0000    0.0000 C   0  0  0  0  0  0  0  0  0  0  0  0
    0.7500   -1.2990    0.0000 C   0  0  0  0  0  0  0  0  0  0  0  0
   -0.7500   -1.2990    0.0000 C   0  0  0  0  0  0  0  0  0  0  0  0
   -1.5000    0.0000    0.0000 C   0  0  0  0  0  0  0  0  0  0  0  0
   -3.0000    0.0000    0.0000 C   0  0  0  0  0  0  0  0  0  0  0  0
   -3.7500   -1.2990    0.0000 O   0  0  0  0  0  0  0  0  0  0  0  0
   -3.7500    1.2990    0.0000 N   0  0  0  0  0  0  0  0  0  0  0  0
   -5.2500    1.2990    0.0000 C   0  0  0  0  0  0  0  0  0  0  0  0
   -6.1317    0.0855    0.0000 N   0  0  0  0  0  0  0  0  0  0  0  0
   -7.5583    0.5490    0.0000 N   0  0  0  0  0  0  0  0  0  0  0  0
   -7.5583    2.0490    0.0000 N   0  0  0  0  0  0  0  0  0  0  0  0
   -6.1317    2.5126    0.0000 N   0  0  0  0  0  0  0  0  0  0  0  0
   -5.6682    3.9391    0.0000 C   0  0  0  0  0  0  0  0  0  0  0  0
   -4.2009    4.2510    0.0000 C   0  0  0  0  0  0  0  0  0  0  0  0
   -3.7374    5.6776    0.0000 C   0  0  0  0  0  0  0  0  0  0  0  0
   -4.7411    6.7923    0.0000 C   0  0  0  0  0  0  0  0  0  0  0  0
   -4.2776    8.2189    0.0000 C   0  0  0  0  0  0  0  0  0  0  0  0
   -5.2813    9.3336    0.0000 O   0  0  0  0  0  0  0  0  0  0  0  0
   -2.8104    8.5308    0.0000 N   0  0  0  0  0  0  0  0  0  0  0  0
   -2.3468    9.9574    0.0000 O   0  0  0  0  0  0  0  0  0  0  0  0
   -6.2083    6.4805    0.0000 C   0  0  0  0  0  0  0  0  0  0  0  0
   -7.2120    7.5952    0.0000 C   0  0  0  0  0  0  0  0  0  0  0  0
   -6.6718    5.0539    0.0000 C   0  0  0  0  0  0  0  0  0  0  0  0
   -0.7500    1.2990    0.0000 C   0  0  0  0  0  0  0  0  0  0  0  0
    0.7500    1.2990    0.0000 C   0  0  0  0  0  0  0  0  0  0  0  0
  1  2  1  0
  2  3  1  0
  3  4  2  0
  4  5  1  0
  5  6  2  0
  6  7  1  0
  7  8  2  0
  7  9  1  0
  9 10  1  0
 10 11  2  0
 11 12  1  0
 12 13  2  0
 13 14  1  0
 14 15  1  0
 15 16  2  0
 16 17  1  0
 17 18  2  0
 18 19  1  0
 19 20  2  0
 19 21  1  0
 21 22  1  0
 18 23  1  0
 23 24  1  0
 23 25  2  0
  6 26  1  0
 26 27  2  0
 27  3  1  0
 14 10  1  0
 25 15  1  0
M  END
>  <Title>  (756) 
idABDBgen7

$$$$

     RDKit          2D

 35 38  0  0  0  0  0  0  0  0999 V2000
    6.0000   -2.5981    0.0000 C   0  0  0  0  0  0  0  0  0  0  0  0
    5.2500   -1.2990    0.0000 C   0  0  0  0  0  0  0  0  0  0  0  0
    6.0000    0.0000    0.0000 O   0  0  0  0  0  0  0  0  0  0  0  0
    3.7500   -1.2990    0.0000 N   0  0  0  0  0  0  0  0  0  0  0  0
    3.0000    0.0000    0.0000 C   0  0  0  0  0  0  0  0  0  0  0  0
    3.7500    1.2990    0.0000 O   0  0  0  0  0  0  0  0  0  0  0  0
    1.5000    0.0000    0.0000 C   0  0  0  0  0  0  0  0  0  0  0  0
    0.7500   -1.2990    0.0000 C   0  0  0  0  0  0  0  0  0  0  0  0
   -0.7500   -1.2990    0.0000 C   0  0  0  0  0  0  0  0  0  0  0  0
   -1.5000    0.0000    0.0000 C   0  0  0  0  0  0  0  0  0  0  0  0
   -3.0000    0.0000    0.0000 C   0  0  0  0  0  0  0  0  0  0  0  0
   -3.7500    1.2990    0.0000 C   0  0  0  0  0  0  0  0  0  0  0  0
   -5.2500    1.2990    0.0000 C   0  0  0  0  0  0  0  0  0  0  0  0
   -6.1317    0.0855    0.0000 N   0  0  0  0  0  0  0  0  0  0  0  0
   -7.5583    0.5490    0.0000 N   0  0  0  0  0  0  0  0  0  0  0  0
   -7.5583    2.0490    0.0000 N   0  0  0  0  0  0  0  0  0  0  0  0
   -6.1317    2.5126    0.0000 N   0  0  0  0  0  0  0  0  0  0  0  0
   -5.6682    3.9391    0.0000 C   0  0  0  0  0  0  0  0  0  0  0  0
   -4.2009    4.2510    0.0000 C   0  0  0  0  0  0  0  0  0  0  0  0
   -3.7374    5.6776    0.0000 C   0  0  0  0  0  0  0  0  0  0  0  0
   -4.7411    6.7923    0.0000 C   0  0  0  0  0  0  0  0  0  0  0  0
   -4.2776    8.2189    0.0000 C   0  0  0  0  0  0  0  0  0  0  0  0
   -2.8104    8.5308    0.0000 C   0  0  0  0  0  0  0  0  0  0  0  0
   -2.3468    9.9574    0.0000 C   0  0  0  0  0  0  0  0  0  0  0  0
   -3.3505   11.0721    0.0000 C   0  0  0  0  0  0  0  0  0  0  0  0
   -2.8870   12.4987    0.0000 C   0  0  0  0  0  0  0  0  0  0  0  0
   -3.8907   13.6134    0.0000 O   0  0  0  0  0  0  0  0  0  0  0  0
   -1.4198   12.8105    0.0000 O   0  0  0  0  0  0  0  0  0  0  0  0
   -4.8177   10.7602    0.0000 C   0  0  0  0  0  0  0  0  0  0  0  0
   -5.2813    9.3336    0.0000 C   0  0  0  0  0  0  0  0  0  0  0  0
   -6.2083    6.4805    0.0000 C   0  0  0  0  0  0  0  0  0  0  0  0
   -6.6718    5.0539    0.0000 C   0  0  0  0  0  0  0  0  0  0  0  0
   -0.7500    1.2990    0.0000 C   0  0  0  0  0  0  0  0  0  0  0  0
   -1.5000    2.5981    0.0000 O   0  0  0  0  0  0  0  0  0  0  0  0
    0.7500    1.2990    0.0000 N   0  0  0  0  0  0  0  0  0  0  0  0
  1  2  1  0
  2  3  2  0
  2  4  1  0
  4  5  1  0
  5  6  2  0
  5  7  1  0
  7  8  1  0
  8  9  1  0
  9 10  2  0
 10 11  1  0
 11 12  1  0
 12 13  1  0
 13 14  2  0
 14 15  1  0
 15 16  2  0
 16 17  1  0
 17 18  1  0
 18 19  2  0
 19 20  1  0
 20 21  2  0
 21 22  1  0
 22 23  2  0
 23 24  1  0
 24 25  2  0
 25 26  1  0
 26 27  2  0
 26 28  1  0
 25 29  1  0
 29 30  2  0
 21 31  1  0
 31 32  1  0
 10 33  1  0
 33 34  2  0
 33 35  1  0
 35  7  1  0
 17 13  1  0
 32 18  1  0
 30 22  1  0
M  END
>  <Title>  (757) 
idABDCgen7

$$$$

     RDKit          2D

 24 26  0  0  0  0  0  0  0  0999 V2000
    6.0000   -2.5981    0.0000 C   0  0  0  0  0  0  0  0  0  0  0  0
    5.2500   -1.2990    0.0000 C   0  0  0  0  0  0  0  0  0  0  0  0
    6.0000    0.0000    0.0000 O   0  0  0  0  0  0  0  0  0  0  0  0
    3.7500   -1.2990    0.0000 N   0  0  0  0  0  0  0  0  0  0  0  0
    3.0000    0.0000    0.0000 C   0  0  0  0  0  0  0  0  0  0  0  0
    3.7500    1.2990    0.0000 O   0  0  0  0  0  0  0  0  0  0  0  0
    1.5000   -0.0000    0.0000 C   0  0  0  0  0  0  0  0  0  0  0  0
    0.7500   -1.2990    0.0000 C   0  0  0  0  0  0  0  0  0  0  0  0
   -0.7500   -1.2990    0.0000 C   0  0  0  0  0  0  0  0  0  0  0  0
   -1.5000    0.0000    0.0000 C   0  0  0  0  0  0  0  0  0  0  0  0
   -3.0000    0.0000    0.0000 C   0  0  0  0  0  0  0  0  0  0  0  0
   -3.7500    1.2990    0.0000 C   0  0  0  0  0  0  0  0  0  0  0  0
   -3.1399    2.6694    0.0000 N   0  0  0  0  0  0  0  0  0  0  0  0
   -4.2546    3.6731    0.0000 N   0  0  0  0  0  0  0  0  0  0  0  0
   -5.5537    2.9231    0.0000 N   0  0  0  0  0  0  0  0  0  0  0  0
   -5.2418    1.4558    0.0000 N   0  0  0  0  0  0  0  0  0  0  0  0
   -6.2455    0.3411    0.0000 C   0  0  0  0  0  0  0  0  0  0  0  0
   -5.7820   -1.0855    0.0000 C   0  0  0  0  0  0  0  0  0  0  0  0
   -6.7856   -2.2002    0.0000 C   0  0  0  0  0  0  0  0  0  0  0  0
   -8.2529   -1.8883    0.0000 C   0  0  0  0  0  0  0  0  0  0  0  0
   -8.7164   -0.4617    0.0000 C   0  0  0  0  0  0  0  0  0  0  0  0
   -7.7127    0.6530    0.0000 C   0  0  0  0  0  0  0  0  0  0  0  0
   -0.7500    1.2990    0.0000 C   0  0  0  0  0  0  0  0  0  0  0  0
    0.7500    1.2990    0.0000 C   0  0  0  0  0  0  0  0  0  0  0  0
  1  2  1  0
  2  3  2  0
  2  4  1  0
  4  5  1  0
  5  6  2  0
  5  7  1  0
  7  8  1  0
  8  9  1  0
  9 10  2  0
 10 11  1  0
 11 12  1  0
 12 13  2  0
 13 14  1  0
 14 15  2  0
 15 16  1  0
 16 17  1  0
 17 18  2  0
 18 19  1  0
 19 20  2  0
 20 21  1  0
 21 22  2  0
 10 23  1  0
 23 24  1  0
 24  7  1  0
 16 12  1  0
 22 17  1  0
M  END
>  <Title>  (758) 
idABDDgen7

$$$$

     RDKit          2D

 11 11  0  0  0  0  0  0  0  0999 V2000
    5.2500   -1.2990    0.0000 C   0  0  0  0  0  0  0  0  0  0  0  0
    3.7500   -1.2990    0.0000 C   0  0  0  0  0  0  0  0  0  0  0  0
    3.0000   -2.5981    0.0000 C   0  0  0  0  0  0  0  0  0  0  0  0
    3.0000    0.0000    0.0000 C   0  0  0  0  0  0  0  0  0  0  0  0
    1.5000    0.0000    0.0000 C   0  0  0  0  0  0  0  0  0  0  0  0
    0.7500   -1.2990    0.0000 C   0  0  0  0  0  0  0  0  0  0  0  0
   -0.7500   -1.2990    0.0000 C   0  0  0  0  0  0  0  0  0  0  0  0
   -1.5000    0.0000    0.0000 C   0  0  0  0  0  0  0  0  0  0  0  0
   -0.7500    1.2990    0.0000 C   0  0  0  0  0  0  0  0  0  0  0  0
    0.7500    1.2990    0.0000 C   0  0  0  0  0  0  0  0  0  0  0  0
    1.5000    2.5981    0.0000 C   0  0  0  0  0  0  0  0  0  0  0  0
  1  2  1  0
  2  3  1  0
  2  4  1  0
  4  5  1  0
  5  6  1  0
  6  7  1  0
  7  8  1  0
  8  9  1  0
  9 10  1  0
 10 11  1  0
 10  5  1  0
M  END
>  <Title>  (759) 
idABDEgen7

$$$$

     RDKit          2D

 33 37  0  0  0  0  0  0  0  0999 V2000
    3.0000    0.0000    0.0000 C   0  0  0  0  0  0  0  0  0  0  0  0
    1.5000    0.0000    0.0000 C   0  0  0  0  0  0  0  0  0  0  0  0
    0.7500    1.2990    0.0000 C   0  0  0  0  0  0  0  0  0  0  0  0
   -0.7500    1.2990    0.0000 C   0  0  0  0  0  0  0  0  0  0  0  0
   -1.5000    0.0000    0.0000 C   0  0  0  0  0  0  0  0  0  0  0  0
   -3.0000    0.0000    0.0000 C   0  0  0  0  0  0  0  0  0  0  0  0
   -3.8817   -1.2135    0.0000 N   0  0  0  0  0  0  0  0  0  0  0  0
   -5.3083   -0.7500    0.0000 N   0  0  0  0  0  0  0  0  0  0  0  0
   -5.3083    0.7500    0.0000 N   0  0  0  0  0  0  0  0  0  0  0  0
   -3.8817    1.2135    0.0000 N   0  0  0  0  0  0  0  0  0  0  0  0
   -3.4182    2.6401    0.0000 C   0  0  0  0  0  0  0  0  0  0  0  0
   -1.9509    2.9520    0.0000 C   0  0  0  0  0  0  0  0  0  0  0  0
   -1.4874    4.3786    0.0000 C   0  0  0  0  0  0  0  0  0  0  0  0
   -2.4911    5.4933    0.0000 C   0  0  0  0  0  0  0  0  0  0  0  0
   -2.0276    6.9199    0.0000 C   0  0  0  0  0  0  0  0  0  0  0  0
   -3.0313    8.0346    0.0000 O   0  0  0  0  0  0  0  0  0  0  0  0
   -0.5604    7.2317    0.0000 N   0  0  0  0  0  0  0  0  0  0  0  0
   -0.0968    8.6583    0.0000 C   0  0  0  0  0  0  0  0  0  0  0  0
   -0.9785    9.8718    0.0000 N   0  0  0  0  0  0  0  0  0  0  0  0
   -0.0968   11.0854    0.0000 N   0  0  0  0  0  0  0  0  0  0  0  0
    1.3298   10.6218    0.0000 N   0  0  0  0  0  0  0  0  0  0  0  0
    1.3298    9.1218    0.0000 N   0  0  0  0  0  0  0  0  0  0  0  0
    2.5433    8.2402    0.0000 C   0  0  0  0  0  0  0  0  0  0  0  0
    2.3865    6.7484    0.0000 C   0  0  0  0  0  0  0  0  0  0  0  0
    3.6000    5.8667    0.0000 C   0  0  0  0  0  0  0  0  0  0  0  0
    4.9703    6.4768    0.0000 C   0  0  0  0  0  0  0  0  0  0  0  0
    5.1271    7.9686    0.0000 C   0  0  0  0  0  0  0  0  0  0  0  0
    3.9136    8.8503    0.0000 C   0  0  0  0  0  0  0  0  0  0  0  0
   -3.9583    5.1814    0.0000 C   0  0  0  0  0  0  0  0  0  0  0  0
   -4.4218    3.7548    0.0000 C   0  0  0  0  0  0  0  0  0  0  0  0
   -0.7500   -1.2990    0.0000 C   0  0  0  0  0  0  0  0  0  0  0  0
   -1.5000   -2.5981    0.0000 C   0  0  0  0  0  0  0  0  0  0  0  0
    0.7500   -1.2990    0.0000 C   0  0  0  0  0  0  0  0  0  0  0  0
  1  2  1  0
  2  3  2  0
  3  4  1  0
  4  5  2  0
  5  6  1  0
  6  7  2  0
  7  8  1  0
  8  9  2  0
  9 10  1  0
 10 11  1  0
 11 12  2  0
 12 13  1  0
 13 14  2  0
 14 15  1  0
 15 16  2  0
 15 17  1  0
 17 18  1  0
 18 19  2  0
 19 20  1  0
 20 21  2  0
 21 22  1  0
 22 23  1  0
 23 24  2  0
 24 25  1  0
 25 26  2  0
 26 27  1  0
 27 28  2  0
 14 29  1  0
 29 30  2  0
  5 31  1  0
 31 32  1  0
 31 33  2  0
 33  2  1  0
 10  6  1  0
 30 11  1  0
 22 18  1  0
 28 23  1  0
M  END
>  <Title>  (760) 
idABDFgen7

$$$$

     RDKit          2D

 39 44  0  0  0  0  0  0  0  0999 V2000
    3.0000    0.0000    0.0000 C   0  0  0  0  0  0  0  0  0  0  0  0
    1.5000    0.0000    0.0000 C   0  0  0  0  0  0  0  0  0  0  0  0
    0.7500   -1.2990    0.0000 C   0  0  0  0  0  0  0  0  0  0  0  0
   -0.7500   -1.2990    0.0000 C   0  0  0  0  0  0  0  0  0  0  0  0
   -1.5000    0.0000    0.0000 C   0  0  0  0  0  0  0  0  0  0  0  0
   -3.0000    0.0000    0.0000 C   0  0  0  0  0  0  0  0  0  0  0  0
   -3.8817   -1.2135    0.0000 N   0  0  0  0  0  0  0  0  0  0  0  0
   -5.3083   -0.7500    0.0000 N   0  0  0  0  0  0  0  0  0  0  0  0
   -5.3083    0.7500    0.0000 N   0  0  0  0  0  0  0  0  0  0  0  0
   -3.8817    1.2135    0.0000 N   0  0  0  0  0  0  0  0  0  0  0  0
   -3.4182    2.6401    0.0000 C   0  0  0  0  0  0  0  0  0  0  0  0
   -1.9509    2.9520    0.0000 C   0  0  0  0  0  0  0  0  0  0  0  0
   -1.4874    4.3786    0.0000 C   0  0  0  0  0  0  0  0  0  0  0  0
   -2.4911    5.4933    0.0000 C   0  0  0  0  0  0  0  0  0  0  0  0
   -2.0276    6.9199    0.0000 C   0  0  0  0  0  0  0  0  0  0  0  0
   -2.9093    8.1334    0.0000 N   0  0  0  0  0  0  0  0  0  0  0  0
   -2.0276    9.3469    0.0000 N   0  0  0  0  0  0  0  0  0  0  0  0
   -0.6010    8.8834    0.0000 N   0  0  0  0  0  0  0  0  0  0  0  0
   -0.6010    7.3834    0.0000 N   0  0  0  0  0  0  0  0  0  0  0  0
    0.6125    6.5017    0.0000 C   0  0  0  0  0  0  0  0  0  0  0  0
    0.4557    5.0099    0.0000 C   0  0  0  0  0  0  0  0  0  0  0  0
    1.6693    4.1283    0.0000 C   0  0  0  0  0  0  0  0  0  0  0  0
    3.0396    4.7384    0.0000 C   0  0  0  0  0  0  0  0  0  0  0  0
    3.1964    6.2301    0.0000 C   0  0  0  0  0  0  0  0  0  0  0  0
    1.9829    7.1118    0.0000 C   0  0  0  0  0  0  0  0  0  0  0  0
   -3.9583    5.1814    0.0000 C   0  0  0  0  0  0  0  0  0  0  0  0
   -4.4218    3.7548    0.0000 C   0  0  0  0  0  0  0  0  0  0  0  0
   -5.8891    3.4430    0.0000 C   0  0  0  0  0  0  0  0  0  0  0  0
   -6.8928    4.5577    0.0000 C   0  0  0  0  0  0  0  0  0  0  0  0
   -8.3600    4.2458    0.0000 C   0  0  0  0  0  0  0  0  0  0  0  0
   -8.8235    2.8192    0.0000 C   0  0  0  0  0  0  0  0  0  0  0  0
  -10.2907    2.5074    0.0000 C   0  0  0  0  0  0  0  0  0  0  0  0
  -10.7543    1.0808    0.0000 O   0  0  0  0  0  0  0  0  0  0  0  0
  -11.2944    3.6221    0.0000 N   0  0  0  0  0  0  0  0  0  0  0  0
  -12.7617    3.3102    0.0000 O   0  0  0  0  0  0  0  0  0  0  0  0
   -7.8198    1.7045    0.0000 C   0  0  0  0  0  0  0  0  0  0  0  0
   -6.3526    2.0164    0.0000 C   0  0  0  0  0  0  0  0  0  0  0  0
   -0.7500    1.2990    0.0000 C   0  0  0  0  0  0  0  0  0  0  0  0
    0.7500    1.2990    0.0000 N   0  0  0  0  0  0  0  0  0  0  0  0
  1  2  1  0
  2  3  2  0
  3  4  1  0
  4  5  2  0
  5  6  1  0
  6  7  2  0
  7  8  1  0
  8  9  2  0
  9 10  1  0
 10 11  1  0
 11 12  2  0
 12 13  1  0
 13 14  2  0
 14 15  1  0
 15 16  2  0
 16 17  1  0
 17 18  2  0
 18 19  1  0
 19 20  1  0
 20 21  2  0
 21 22  1  0
 22 23  2  0
 23 24  1  0
 24 25  2  0
 14 26  1  0
 26 27  2  0
 27 28  1  0
 28 29  2  0
 29 30  1  0
 30 31  2  0
 31 32  1  0
 32 33  2  0
 32 34  1  0
 34 35  1  0
 31 36  1  0
 36 37  1  0
  5 38  1  0
 38 39  1  0
 39  2  1  0
 10  6  1  0
 27 11  1  0
 37 28  1  0
 19 15  1  0
 25 20  1  0
M  END
>  <Title>  (761) 
idABDGgen7

$$$$

     RDKit          2D

 30 34  0  0  0  0  0  0  0  0999 V2000
    3.0000    0.0000    0.0000 C   0  0  0  0  0  0  0  0  0  0  0  0
    1.5000    0.0000    0.0000 C   0  0  0  0  0  0  0  0  0  0  0  0
    0.7500    1.2990    0.0000 C   0  0  0  0  0  0  0  0  0  0  0  0
   -0.7500    1.2990    0.0000 C   0  0  0  0  0  0  0  0  0  0  0  0
   -1.5000    0.0000    0.0000 C   0  0  0  0  0  0  0  0  0  0  0  0
   -3.0000    0.0000    0.0000 C   0  0  0  0  0  0  0  0  0  0  0  0
   -3.8817   -1.2135    0.0000 N   0  0  0  0  0  0  0  0  0  0  0  0
   -5.3083   -0.7500    0.0000 N   0  0  0  0  0  0  0  0  0  0  0  0
   -5.3083    0.7500    0.0000 N   0  0  0  0  0  0  0  0  0  0  0  0
   -3.8817    1.2135    0.0000 N   0  0  0  0  0  0  0  0  0  0  0  0
   -3.4182    2.6401    0.0000 C   0  0  0  0  0  0  0  0  0  0  0  0
   -1.9509    2.9520    0.0000 C   0  0  0  0  0  0  0  0  0  0  0  0
   -1.4874    4.3786    0.0000 C   0  0  0  0  0  0  0  0  0  0  0  0
   -2.4911    5.4933    0.0000 C   0  0  0  0  0  0  0  0  0  0  0  0
   -2.0276    6.9199    0.0000 C   0  0  0  0  0  0  0  0  0  0  0  0
   -2.9093    8.1334    0.0000 N   0  0  0  0  0  0  0  0  0  0  0  0
   -2.0276    9.3469    0.0000 N   0  0  0  0  0  0  0  0  0  0  0  0
   -0.6010    8.8834    0.0000 N   0  0  0  0  0  0  0  0  0  0  0  0
   -0.6010    7.3834    0.0000 N   0  0  0  0  0  0  0  0  0  0  0  0
    0.6125    6.5017    0.0000 C   0  0  0  0  0  0  0  0  0  0  0  0
    0.4557    5.0099    0.0000 C   0  0  0  0  0  0  0  0  0  0  0  0
    1.6693    4.1283    0.0000 C   0  0  0  0  0  0  0  0  0  0  0  0
    3.0396    4.7384    0.0000 C   0  0  0  0  0  0  0  0  0  0  0  0
    3.1964    6.2301    0.0000 C   0  0  0  0  0  0  0  0  0  0  0  0
    1.9829    7.1118    0.0000 C   0  0  0  0  0  0  0  0  0  0  0  0
   -3.9583    5.1814    0.0000 C   0  0  0  0  0  0  0  0  0  0  0  0
   -4.4218    3.7548    0.0000 C   0  0  0  0  0  0  0  0  0  0  0  0
   -0.7500   -1.2990    0.0000 C   0  0  0  0  0  0  0  0  0  0  0  0
   -1.5000   -2.5981    0.0000 O   0  0  0  0  0  0  0  0  0  0  0  0
    0.7500   -1.2990    0.0000 N   0  0  0  0  0  0  0  0  0  0  0  0
  1  2  1  0
  2  3  2  0
  3  4  1  0
  4  5  2  0
  5  6  1  0
  6  7  2  0
  7  8  1  0
  8  9  2  0
  9 10  1  0
 10 11  1  0
 11 12  2  0
 12 13  1  0
 13 14  2  0
 14 15  1  0
 15 16  2  0
 16 17  1  0
 17 18  2  0
 18 19  1  0
 19 20  1  0
 20 21  2  0
 21 22  1  0
 22 23  2  0
 23 24  1  0
 24 25  2  0
 14 26  1  0
 26 27  2  0
  5 28  1  0
 28 29  2  0
 28 30  1  0
 30  2  1  0
 10  6  1  0
 27 11  1  0
 19 15  1  0
 25 20  1  0
M  END
>  <Title>  (762) 
idABDHgen7

$$$$

     RDKit          2D

 25 25  0  0  0  0  0  0  0  0999 V2000
    6.7700    0.0000    0.0000 C   0  0  0  0  0  0  0  0  0  0  0  0
    5.2700    0.0000    0.0000 C   0  0  0  0  0  0  0  0  0  0  0  0
    5.0565   -1.4847    0.0000 C   0  0  0  0  0  0  0  0  0  0  0  0
    4.4334   -2.8492    0.0000 C   0  0  0  0  0  0  0  0  0  0  0  0
    3.4511   -3.9828    0.0000 C   0  0  0  0  0  0  0  0  0  0  0  0
    2.1892   -4.7938    0.0000 C   0  0  0  0  0  0  0  0  0  0  0  0
    0.7500   -5.2164    0.0000 C   0  0  0  0  0  0  0  0  0  0  0  0
   -0.7500   -5.2164    0.0000 C   0  0  0  0  0  0  0  0  0  0  0  0
   -2.1892   -4.7938    0.0000 C   0  0  0  0  0  0  0  0  0  0  0  0
   -3.4511   -3.9828    0.0000 C   0  0  0  0  0  0  0  0  0  0  0  0
   -4.4334   -2.8492    0.0000 C   0  0  0  0  0  0  0  0  0  0  0  0
   -5.0565   -1.4847    0.0000 C   0  0  0  0  0  0  0  0  0  0  0  0
   -5.2700    0.0000    0.0000 C   0  0  0  0  0  0  0  0  0  0  0  0
   -5.0565    1.4847    0.0000 C   0  0  0  0  0  0  0  0  0  0  0  0
   -4.4334    2.8492    0.0000 C   0  0  0  0  0  0  0  0  0  0  0  0
   -3.4511    3.9828    0.0000 C   0  0  0  0  0  0  0  0  0  0  0  0
   -2.1892    4.7938    0.0000 C   0  0  0  0  0  0  0  0  0  0  0  0
   -0.7500    5.2164    0.0000 C   0  0  0  0  0  0  0  0  0  0  0  0
    0.7500    5.2164    0.0000 C   0  0  0  0  0  0  0  0  0  0  0  0
    2.1892    4.7938    0.0000 C   0  0  0  0  0  0  0  0  0  0  0  0
    3.4511    3.9828    0.0000 C   0  0  0  0  0  0  0  0  0  0  0  0
    4.4334    5.1164    0.0000 C   0  0  0  0  0  0  0  0  0  0  0  0
    4.4334    2.8492    0.0000 C   0  0  0  0  0  0  0  0  0  0  0  0
    5.6953    3.6601    0.0000 O   0  0  0  0  0  0  0  0  0  0  0  0
    5.0565    1.4847    0.0000 N   0  0  0  0  0  0  0  0  0  0  0  0
  1  2  1  0
  2  3  2  0
  3  4  1  0
  4  5  2  0
  5  6  1  0
  6  7  2  0
  7  8  1  0
  8  9  2  0
  9 10  1  0
 10 11  2  0
 11 12  1  0
 12 13  2  0
 13 14  1  0
 14 15  2  0
 15 16  1  0
 16 17  2  0
 17 18  1  0
 18 19  2  0
 19 20  1  0
 20 21  2  0
 21 22  1  0
 21 23  1  0
 23 24  2  0
 23 25  1  0
 25  2  1  0
M  END
>  <Title>  (763) 
idABDIgen7

$$$$

     RDKit          2D

 25 27  0  0  0  0  0  0  0  0999 V2000
    3.7500   -1.2990    0.0000 C   0  0  0  0  0  0  0  0  0  0  0  0
    3.0000    0.0000    0.0000 C   0  0  0  0  0  0  0  0  0  0  0  0
    1.5000    0.0000    0.0000 C   0  0  0  0  0  0  0  0  0  0  0  0
    0.7500   -1.2990    0.0000 C   0  0  0  0  0  0  0  0  0  0  0  0
   -0.7500   -1.2990    0.0000 C   0  0  0  0  0  0  0  0  0  0  0  0
   -1.5000    0.0000    0.0000 C   0  0  0  0  0  0  0  0  0  0  0  0
   -3.0000    0.0000    0.0000 C   0  0  0  0  0  0  0  0  0  0  0  0
   -3.7500   -1.2990    0.0000 O   0  0  0  0  0  0  0  0  0  0  0  0
   -3.7500    1.2990    0.0000 N   0  0  0  0  0  0  0  0  0  0  0  0
   -5.2500    1.2990    0.0000 C   0  0  0  0  0  0  0  0  0  0  0  0
   -6.1317    0.0855    0.0000 N   0  0  0  0  0  0  0  0  0  0  0  0
   -7.5583    0.5490    0.0000 N   0  0  0  0  0  0  0  0  0  0  0  0
   -7.5583    2.0490    0.0000 N   0  0  0  0  0  0  0  0  0  0  0  0
   -6.1317    2.5126    0.0000 N   0  0  0  0  0  0  0  0  0  0  0  0
   -5.6682    3.9391    0.0000 C   0  0  0  0  0  0  0  0  0  0  0  0
   -4.2009    4.2510    0.0000 C   0  0  0  0  0  0  0  0  0  0  0  0
   -3.7374    5.6776    0.0000 C   0  0  0  0  0  0  0  0  0  0  0  0
   -4.7411    6.7923    0.0000 C   0  0  0  0  0  0  0  0  0  0  0  0
   -4.2776    8.2189    0.0000 C   0  0  0  0  0  0  0  0  0  0  0  0
   -6.2083    6.4805    0.0000 C   0  0  0  0  0  0  0  0  0  0  0  0
   -7.2120    7.5952    0.0000 O   0  0  0  0  0  0  0  0  0  0  0  0
   -6.6718    5.0539    0.0000 N   0  0  0  0  0  0  0  0  0  0  0  0
   -0.7500    1.2990    0.0000 C   0  0  0  0  0  0  0  0  0  0  0  0
   -1.5000    2.5981    0.0000 O   0  0  0  0  0  0  0  0  0  0  0  0
    0.7500    1.2990    0.0000 N   0  0  0  0  0  0  0  0  0  0  0  0
  1  2  1  0
  2  3  1  0
  3  4  2  0
  4  5  1  0
  5  6  2  0
  6  7  1  0
  7  8  2  0
  7  9  1  0
  9 10  1  0
 10 11  2  0
 11 12  1  0
 12 13  2  0
 13 14  1  0
 14 15  1  0
 15 16  2  0
 16 17  1  0
 17 18  2  0
 18 19  1  0
 18 20  1  0
 20 21  2  0
 20 22  1  0
  6 23  1  0
 23 24  2  0
 23 25  1  0
 25  3  1  0
 14 10  1  0
 22 15  1  0
M  END
>  <Title>  (764) 
idABDJgen7

$$$$

     RDKit          2D

 42 48  0  0  0  0  0  0  0  0999 V2000
   -7.2069  -13.8591    0.0000 C   0  0  0  0  0  0  0  0  0  0  0  0
   -6.9982  -12.3737    0.0000 O   0  0  0  0  0  0  0  0  0  0  0  0
   -5.6074  -11.8118    0.0000 C   0  0  0  0  0  0  0  0  0  0  0  0
   -4.4254  -12.7353    0.0000 C   0  0  0  0  0  0  0  0  0  0  0  0
   -3.0346  -12.1734    0.0000 C   0  0  0  0  0  0  0  0  0  0  0  0
   -2.8258  -10.6880    0.0000 C   0  0  0  0  0  0  0  0  0  0  0  0
   -1.4350  -10.1261    0.0000 C   0  0  0  0  0  0  0  0  0  0  0  0
   -0.1630  -10.9210    0.0000 N   0  0  0  0  0  0  0  0  0  0  0  0
    0.9861   -9.9568    0.0000 N   0  0  0  0  0  0  0  0  0  0  0  0
    0.4242   -8.5660    0.0000 N   0  0  0  0  0  0  0  0  0  0  0  0
   -1.0722   -8.6706    0.0000 N   0  0  0  0  0  0  0  0  0  0  0  0
   -2.0363   -7.5216    0.0000 C   0  0  0  0  0  0  0  0  0  0  0  0
   -1.6735   -6.0661    0.0000 C   0  0  0  0  0  0  0  0  0  0  0  0
   -2.9455   -5.2712    0.0000 C   0  0  0  0  0  0  0  0  0  0  0  0
   -4.0946   -6.2354    0.0000 C   0  0  0  0  0  0  0  0  0  0  0  0
   -5.5500   -5.8725    0.0000 C   0  0  0  0  0  0  0  0  0  0  0  0
   -6.6991   -6.8367    0.0000 N   0  0  0  0  0  0  0  0  0  0  0  0
   -7.9712   -6.0419    0.0000 N   0  0  0  0  0  0  0  0  0  0  0  0
   -7.6083   -4.5864    0.0000 N   0  0  0  0  0  0  0  0  0  0  0  0
   -6.1120   -4.4818    0.0000 N   0  0  0  0  0  0  0  0  0  0  0  0
   -5.3171   -3.2097    0.0000 C   0  0  0  0  0  0  0  0  0  0  0  0
   -3.8499   -3.5216    0.0000 C   0  0  0  0  0  0  0  0  0  0  0  0
   -2.5254   -2.8174    0.0000 C   0  0  0  0  0  0  0  0  0  0  0  0
   -1.9635   -1.4266    0.0000 C   0  0  0  0  0  0  0  0  0  0  0  0
   -0.7500   -2.3083    0.0000 C   0  0  0  0  0  0  0  0  0  0  0  0
    0.7500   -2.3083    0.0000 C   0  0  0  0  0  0  0  0  0  0  0  0
    1.9635   -1.4266    0.0000 C   0  0  0  0  0  0  0  0  0  0  0  0
    2.4271   -0.0000    0.0000 C   0  0  0  0  0  0  0  0  0  0  0  0
    1.9635    1.4266    0.0000 C   0  0  0  0  0  0  0  0  0  0  0  0
    0.7500    2.3083    0.0000 C   0  0  0  0  0  0  0  0  0  0  0  0
   -0.7500    2.3083    0.0000 C   0  0  0  0  0  0  0  0  0  0  0  0
   -1.9635    1.4266    0.0000 C   0  0  0  0  0  0  0  0  0  0  0  0
   -2.4271   -0.0000    0.0000 C   0  0  0  0  0  0  0  0  0  0  0  0
   -3.6991    0.7949    0.0000 N   0  0  0  0  0  0  0  0  0  0  0  0
   -5.1845    0.5861    0.0000 N   0  0  0  0  0  0  0  0  0  0  0  0
   -6.1882   -0.5286    0.0000 N   0  0  0  0  0  0  0  0  0  0  0  0
   -6.2406   -2.0277    0.0000 N   0  0  0  0  0  0  0  0  0  0  0  0
   -3.5327   -7.6262    0.0000 C   0  0  0  0  0  0  0  0  0  0  0  0
   -4.3276   -8.8983    0.0000 O   0  0  0  0  0  0  0  0  0  0  0  0
   -4.0078   -9.7645    0.0000 N   0  0  0  0  0  0  0  0  0  0  0  0
   -5.3986  -10.3264    0.0000 C   0  0  0  0  0  0  0  0  0  0  0  0
   -6.5806   -9.4029    0.0000 O   0  0  0  0  0  0  0  0  0  0  0  0
  1  2  1  0
  2  3  1  0
  3  4  2  0
  4  5  1  0
  5  6  2  0
  6  7  1  0
  7  8  2  0
  8  9  1  0
  9 10  2  0
 10 11  1  0
 11 12  1  0
 12 13  2  0
 13 14  1  0
 14 15  2  0
 15 16  1  0
 16 17  2  0
 17 18  1  0
 18 19  2  0
 19 20  1  0
 20 21  1  0
 21 22  2  0
 22 23  1  0
 23 24  2  0
 24 25  1  0
 25 26  2  0
 26 27  1  0
 27 28  2  0
 28 29  1  0
 29 30  2  0
 30 31  1  0
 31 32  2  0
 32 33  1  0
 33 34  2  0
 34 35  1  0
 35 36  2  0
 36 37  1  0
 15 38  1  0
 38 39  2  0
  6 40  1  0
 40 41  1  0
 41 42  2  0
 41  3  1  0
 11  7  1  0
 38 12  1  0
 20 16  1  0
 37 21  1  0
 33 24  1  0
 37 27  1  0
M  END
>  <Title>  (765) 
idABDKgen7

$$$$

     RDKit          2D

 41 46  0  0  0  0  0  0  0  0999 V2000
    3.0000    0.0000    0.0000 C   0  0  0  0  0  0  0  0  0  0  0  0
    1.5000    0.0000    0.0000 C   0  0  0  0  0  0  0  0  0  0  0  0
    0.7500    1.2990    0.0000 C   0  0  0  0  0  0  0  0  0  0  0  0
   -0.7500    1.2990    0.0000 C   0  0  0  0  0  0  0  0  0  0  0  0
   -1.5000    0.0000    0.0000 C   0  0  0  0  0  0  0  0  0  0  0  0
   -3.0000    0.0000    0.0000 C   0  0  0  0  0  0  0  0  0  0  0  0
   -3.8817   -1.2135    0.0000 N   0  0  0  0  0  0  0  0  0  0  0  0
   -5.3083   -0.7500    0.0000 N   0  0  0  0  0  0  0  0  0  0  0  0
   -5.3083    0.7500    0.0000 N   0  0  0  0  0  0  0  0  0  0  0  0
   -3.8817    1.2135    0.0000 N   0  0  0  0  0  0  0  0  0  0  0  0
   -3.4182    2.6401    0.0000 C   0  0  0  0  0  0  0  0  0  0  0  0
   -1.9509    2.9520    0.0000 C   0  0  0  0  0  0  0  0  0  0  0  0
   -1.4874    4.3786    0.0000 C   0  0  0  0  0  0  0  0  0  0  0  0
   -2.4911    5.4933    0.0000 C   0  0  0  0  0  0  0  0  0  0  0  0
   -2.0276    6.9199    0.0000 C   0  0  0  0  0  0  0  0  0  0  0  0
   -0.5604    7.2317    0.0000 C   0  0  0  0  0  0  0  0  0  0  0  0
   -0.0968    8.6583    0.0000 C   0  0  0  0  0  0  0  0  0  0  0  0
   -1.1005    9.7730    0.0000 C   0  0  0  0  0  0  0  0  0  0  0  0
   -2.5677    9.4612    0.0000 C   0  0  0  0  0  0  0  0  0  0  0  0
   -3.0313    8.0346    0.0000 C   0  0  0  0  0  0  0  0  0  0  0  0
   -3.9583    5.1814    0.0000 C   0  0  0  0  0  0  0  0  0  0  0  0
   -4.4218    3.7548    0.0000 C   0  0  0  0  0  0  0  0  0  0  0  0
   -5.8891    3.4430    0.0000 C   0  0  0  0  0  0  0  0  0  0  0  0
   -6.3526    2.0164    0.0000 C   0  0  0  0  0  0  0  0  0  0  0  0
   -7.8198    1.7045    0.0000 C   0  0  0  0  0  0  0  0  0  0  0  0
   -8.8235    2.8192    0.0000 C   0  0  0  0  0  0  0  0  0  0  0  0
   -8.3600    4.2458    0.0000 C   0  0  0  0  0  0  0  0  0  0  0  0
   -6.8928    4.5577    0.0000 C   0  0  0  0  0  0  0  0  0  0  0  0
   -6.4292    5.9843    0.0000 C   0  0  0  0  0  0  0  0  0  0  0  0
   -7.4329    7.0990    0.0000 C   0  0  0  0  0  0  0  0  0  0  0  0
   -6.9694    8.5256    0.0000 C   0  0  0  0  0  0  0  0  0  0  0  0
   -5.5022    8.8374    0.0000 C   0  0  0  0  0  0  0  0  0  0  0  0
   -5.0387   10.2640    0.0000 C   0  0  0  0  0  0  0  0  0  0  0  0
   -3.5714   10.5759    0.0000 O   0  0  0  0  0  0  0  0  0  0  0  0
   -6.0424   11.3787    0.0000 N   0  0  0  0  0  0  0  0  0  0  0  0
   -5.5788   12.8053    0.0000 O   0  0  0  0  0  0  0  0  0  0  0  0
   -4.4985    7.7227    0.0000 C   0  0  0  0  0  0  0  0  0  0  0  0
   -4.9620    6.2961    0.0000 C   0  0  0  0  0  0  0  0  0  0  0  0
   -0.7500   -1.2990    0.0000 C   0  0  0  0  0  0  0  0  0  0  0  0
   -1.5000   -2.5981    0.0000 O   0  0  0  0  0  0  0  0  0  0  0  0
    0.7500   -1.2990    0.0000 N   0  0  0  0  0  0  0  0  0  0  0  0
  1  2  1  0
  2  3  2  0
  3  4  1  0
  4  5  2  0
  5  6  1  0
  6  7  2  0
  7  8  1  0
  8  9  2  0
  9 10  1  0
 10 11  1  0
 11 12  2  0
 12 13  1  0
 13 14  2  0
 14 15  1  0
 15 16  2  0
 16 17  1  0
 17 18  2  0
 18 19  1  0
 19 20  2  0
 14 21  1  0
 21 22  2  0
 22 23  1  0
 23 24  2  0
 24 25  1  0
 25 26  2  0
 26 27  1  0
 27 28  2  0
 28 29  1  0
 29 30  2  0
 30 31  1  0
 31 32  2  0
 32 33  1  0
 33 34  2  0
 33 35  1  0
 35 36  1  0
 32 37  1  0
 37 38  1  0
  5 39  1  0
 39 40  2  0
 39 41  1  0
 41  2  1  0
 10  6  1  0
 22 11  1  0
 28 23  1  0
 38 29  1  0
 20 15  1  0
M  END
>  <Title>  (766) 
idABDLgen7

$$$$

     RDKit          2D

 33 37  0  0  0  0  0  0  0  0999 V2000
    3.0000    0.0000    0.0000 C   0  0  0  0  0  0  0  0  0  0  0  0
    1.5000    0.0000    0.0000 C   0  0  0  0  0  0  0  0  0  0  0  0
    0.7500   -1.2990    0.0000 C   0  0  0  0  0  0  0  0  0  0  0  0
   -0.7500   -1.2990    0.0000 C   0  0  0  0  0  0  0  0  0  0  0  0
   -1.5000    0.0000    0.0000 C   0  0  0  0  0  0  0  0  0  0  0  0
   -3.0000    0.0000    0.0000 C   0  0  0  0  0  0  0  0  0  0  0  0
   -3.7500   -1.2990    0.0000 O   0  0  0  0  0  0  0  0  0  0  0  0
   -3.7500    1.2990    0.0000 N   0  0  0  0  0  0  0  0  0  0  0  0
   -5.2500    1.2990    0.0000 C   0  0  0  0  0  0  0  0  0  0  0  0
   -6.1317    0.0855    0.0000 N   0  0  0  0  0  0  0  0  0  0  0  0
   -7.5583    0.5490    0.0000 N   0  0  0  0  0  0  0  0  0  0  0  0
   -7.5583    2.0490    0.0000 N   0  0  0  0  0  0  0  0  0  0  0  0
   -6.1317    2.5126    0.0000 N   0  0  0  0  0  0  0  0  0  0  0  0
   -5.6682    3.9391    0.0000 C   0  0  0  0  0  0  0  0  0  0  0  0
   -4.2009    4.2510    0.0000 C   0  0  0  0  0  0  0  0  0  0  0  0
   -3.7374    5.6776    0.0000 C   0  0  0  0  0  0  0  0  0  0  0  0
   -4.7411    6.7923    0.0000 C   0  0  0  0  0  0  0  0  0  0  0  0
   -4.2776    8.2189    0.0000 C   0  0  0  0  0  0  0  0  0  0  0  0
   -5.1593    9.4324    0.0000 N   0  0  0  0  0  0  0  0  0  0  0  0
   -4.2776   10.6460    0.0000 N   0  0  0  0  0  0  0  0  0  0  0  0
   -2.8510   10.1824    0.0000 N   0  0  0  0  0  0  0  0  0  0  0  0
   -2.8510    8.6824    0.0000 N   0  0  0  0  0  0  0  0  0  0  0  0
   -1.6375    7.8008    0.0000 C   0  0  0  0  0  0  0  0  0  0  0  0
   -1.7943    6.3090    0.0000 C   0  0  0  0  0  0  0  0  0  0  0  0
   -0.5807    5.4273    0.0000 C   0  0  0  0  0  0  0  0  0  0  0  0
    0.7896    6.0374    0.0000 C   0  0  0  0  0  0  0  0  0  0  0  0
    0.9464    7.5292    0.0000 C   0  0  0  0  0  0  0  0  0  0  0  0
   -0.2671    8.4109    0.0000 C   0  0  0  0  0  0  0  0  0  0  0  0
   -6.2083    6.4805    0.0000 C   0  0  0  0  0  0  0  0  0  0  0  0
   -6.6718    5.0539    0.0000 C   0  0  0  0  0  0  0  0  0  0  0  0
   -0.7500    1.2990    0.0000 C   0  0  0  0  0  0  0  0  0  0  0  0
    0.7500    1.2990    0.0000 C   0  0  0  0  0  0  0  0  0  0  0  0
    1.5000    2.5981    0.0000 N   0  0  0  0  0  0  0  0  0  0  0  0
  1  2  1  0
  2  3  2  0
  3  4  1  0
  4  5  2  0
  5  6  1  0
  6  7  2  0
  6  8  1  0
  8  9  1  0
  9 10  2  0
 10 11  1  0
 11 12  2  0
 12 13  1  0
 13 14  1  0
 14 15  2  0
 15 16  1  0
 16 17  2  0
 17 18  1  0
 18 19  2  0
 19 20  1  0
 20 21  2  0
 21 22  1  0
 22 23  1  0
 23 24  2  0
 24 25  1  0
 25 26  2  0
 26 27  1  0
 27 28  2  0
 17 29  1  0
 29 30  2  0
  5 31  1  0
 31 32  2  0
 32 33  1  0
 32  2  1  0
 13  9  1  0
 30 14  1  0
 22 18  1  0
 28 23  1  0
M  END
>  <Title>  (767) 
idABDMgen7

$$$$

     RDKit          2D

 26 29  0  0  0  0  0  0  0  0999 V2000
   -1.7843    5.4484    0.0000 C   0  0  0  0  0  0  0  0  0  0  0  0
   -1.8068    3.9485    0.0000 O   0  0  0  0  0  0  0  0  0  0  0  0
   -0.5191    3.1792    0.0000 C   0  0  0  0  0  0  0  0  0  0  0  0
    0.8602    3.7687    0.0000 C   0  0  0  0  0  0  0  0  0  0  0  0
    1.8471    2.6391    0.0000 C   0  0  0  0  0  0  0  0  0  0  0  0
    1.0777    1.3515    0.0000 C   0  0  0  0  0  0  0  0  0  0  0  0
    1.7286    0.0000    0.0000 C   0  0  0  0  0  0  0  0  0  0  0  0
    1.0777   -1.3515    0.0000 C   0  0  0  0  0  0  0  0  0  0  0  0
   -0.3846   -1.6852    0.0000 C   0  0  0  0  0  0  0  0  0  0  0  0
   -1.5574   -0.7500    0.0000 C   0  0  0  0  0  0  0  0  0  0  0  0
   -2.9088   -1.4008    0.0000 C   0  0  0  0  0  0  0  0  0  0  0  0
   -3.0209   -2.8966    0.0000 O   0  0  0  0  0  0  0  0  0  0  0  0
   -4.1482   -0.5558    0.0000 N   0  0  0  0  0  0  0  0  0  0  0  0
   -5.4997   -1.2067    0.0000 C   0  0  0  0  0  0  0  0  0  0  0  0
   -5.6118   -2.7025    0.0000 N   0  0  0  0  0  0  0  0  0  0  0  0
   -6.9632   -3.3533    0.0000 C   0  0  0  0  0  0  0  0  0  0  0  0
   -8.2026   -2.5083    0.0000 N   0  0  0  0  0  0  0  0  0  0  0  0
   -8.0905   -1.0125    0.0000 N   0  0  0  0  0  0  0  0  0  0  0  0
   -6.7390   -0.3617    0.0000 C   0  0  0  0  0  0  0  0  0  0  0  0
   -6.6269    1.1341    0.0000 N   0  0  0  0  0  0  0  0  0  0  0  0
   -5.3509    1.9226    0.0000 N   0  0  0  0  0  0  0  0  0  0  0  0
   -5.7065    3.3799    0.0000 N   0  0  0  0  0  0  0  0  0  0  0  0
   -7.2023    3.4920    0.0000 N   0  0  0  0  0  0  0  0  0  0  0  0
   -7.7712    2.1040    0.0000 N   0  0  0  0  0  0  0  0  0  0  0  0
   -1.5574    0.7500    0.0000 C   0  0  0  0  0  0  0  0  0  0  0  0
   -0.3846    1.6852    0.0000 C   0  0  0  0  0  0  0  0  0  0  0  0
  1  2  1  0
  2  3  1  0
  3  4  2  0
  4  5  1  0
  5  6  2  0
  6  7  1  0
  7  8  2  0
  8  9  1  0
  9 10  2  0
 10 11  1  0
 11 12  2  0
 11 13  1  0
 13 14  1  0
 14 15  2  0
 15 16  1  0
 16 17  2  0
 17 18  1  0
 18 19  2  0
 19 20  1  0
 20 21  1  0
 21 22  2  0
 22 23  1  0
 23 24  2  0
 10 25  1  0
 25 26  2  0
 26  3  1  0
 26  6  1  0
 19 14  1  0
 24 20  1  0
M  END
>  <Title>  (768) 
idABDNgen7

$$$$

     RDKit          2D

 26 29  0  0  0  0  0  0  0  0999 V2000
    3.7500    1.2990    0.0000 C   0  0  0  0  0  0  0  0  0  0  0  0
    3.0000    0.0000    0.0000 O   0  0  0  0  0  0  0  0  0  0  0  0
    1.5000    0.0000    0.0000 C   0  0  0  0  0  0  0  0  0  0  0  0
    0.7500    1.2990    0.0000 C   0  0  0  0  0  0  0  0  0  0  0  0
   -0.7500    1.2990    0.0000 C   0  0  0  0  0  0  0  0  0  0  0  0
   -1.5000    0.0000    0.0000 C   0  0  0  0  0  0  0  0  0  0  0  0
   -3.0000    0.0000    0.0000 C   0  0  0  0  0  0  0  0  0  0  0  0
   -3.8817   -1.2135    0.0000 N   0  0  0  0  0  0  0  0  0  0  0  0
   -5.3083   -0.7500    0.0000 N   0  0  0  0  0  0  0  0  0  0  0  0
   -5.3083    0.7500    0.0000 N   0  0  0  0  0  0  0  0  0  0  0  0
   -3.8817    1.2135    0.0000 N   0  0  0  0  0  0  0  0  0  0  0  0
   -3.4182    2.6401    0.0000 C   0  0  0  0  0  0  0  0  0  0  0  0
   -1.9509    2.9520    0.0000 C   0  0  0  0  0  0  0  0  0  0  0  0
   -1.4874    4.3786    0.0000 C   0  0  0  0  0  0  0  0  0  0  0  0
   -2.4911    5.4933    0.0000 C   0  0  0  0  0  0  0  0  0  0  0  0
   -2.0276    6.9199    0.0000 C   0  0  0  0  0  0  0  0  0  0  0  0
   -0.5604    7.2317    0.0000 C   0  0  0  0  0  0  0  0  0  0  0  0
   -0.0968    8.6583    0.0000 C   0  0  0  0  0  0  0  0  0  0  0  0
   -1.1005    9.7730    0.0000 C   0  0  0  0  0  0  0  0  0  0  0  0
   -2.5677    9.4612    0.0000 C   0  0  0  0  0  0  0  0  0  0  0  0
   -3.0313    8.0346    0.0000 C   0  0  0  0  0  0  0  0  0  0  0  0
   -3.9583    5.1814    0.0000 C   0  0  0  0  0  0  0  0  0  0  0  0
   -4.4218    3.7548    0.0000 C   0  0  0  0  0  0  0  0  0  0  0  0
   -0.7500   -1.2990    0.0000 C   0  0  0  0  0  0  0  0  0  0  0  0
   -1.5000   -2.5981    0.0000 O   0  0  0  0  0  0  0  0  0  0  0  0
    0.7500   -1.2990    0.0000 N   0  0  0  0  0  0  0  0  0  0  0  0
  1  2  1  0
  2  3  1  0
  3  4  2  0
  4  5  1  0
  5  6  2  0
  6  7  1  0
  7  8  2  0
  8  9  1  0
  9 10  2  0
 10 11  1  0
 11 12  1  0
 12 13  2  0
 13 14  1  0
 14 15  2  0
 15 16  1  0
 16 17  2  0
 17 18  1  0
 18 19  2  0
 19 20  1  0
 20 21  2  0
 15 22  1  0
 22 23  2  0
  6 24  1  0
 24 25  2  0
 24 26  1  0
 26  3  1  0
 11  7  1  0
 23 12  1  0
 21 16  1  0
M  END
>  <Title>  (769) 
idABDOgen7

$$$$

     RDKit          2D

 38 42  0  0  0  0  0  0  0  0999 V2000
    3.0000    0.0000    0.0000 C   0  0  0  0  0  0  0  0  0  0  0  0
    1.5000    0.0000    0.0000 C   0  0  0  0  0  0  0  0  0  0  0  0
    0.7500    1.2990    0.0000 C   0  0  0  0  0  0  0  0  0  0  0  0
   -0.7500    1.2990    0.0000 C   0  0  0  0  0  0  0  0  0  0  0  0
   -1.5000    0.0000    0.0000 C   0  0  0  0  0  0  0  0  0  0  0  0
   -3.0000    0.0000    0.0000 C   0  0  0  0  0  0  0  0  0  0  0  0
   -3.8817   -1.2135    0.0000 N   0  0  0  0  0  0  0  0  0  0  0  0
   -5.3083   -0.7500    0.0000 N   0  0  0  0  0  0  0  0  0  0  0  0
   -5.3083    0.7500    0.0000 N   0  0  0  0  0  0  0  0  0  0  0  0
   -3.8817    1.2135    0.0000 N   0  0  0  0  0  0  0  0  0  0  0  0
   -3.4182    2.6401    0.0000 C   0  0  0  0  0  0  0  0  0  0  0  0
   -1.9509    2.9520    0.0000 C   0  0  0  0  0  0  0  0  0  0  0  0
   -1.4874    4.3786    0.0000 C   0  0  0  0  0  0  0  0  0  0  0  0
   -2.4911    5.4933    0.0000 C   0  0  0  0  0  0  0  0  0  0  0  0
   -2.0276    6.9199    0.0000 C   0  0  0  0  0  0  0  0  0  0  0  0
   -3.0313    8.0346    0.0000 O   0  0  0  0  0  0  0  0  0  0  0  0
   -0.5604    7.2317    0.0000 N   0  0  0  0  0  0  0  0  0  0  0  0
   -0.0968    8.6583    0.0000 C   0  0  0  0  0  0  0  0  0  0  0  0
    1.3704    8.9702    0.0000 C   0  0  0  0  0  0  0  0  0  0  0  0
    1.8339   10.3968    0.0000 C   0  0  0  0  0  0  0  0  0  0  0  0
    0.8302   11.5115    0.0000 C   0  0  0  0  0  0  0  0  0  0  0  0
   -0.6370   11.1996    0.0000 C   0  0  0  0  0  0  0  0  0  0  0  0
   -1.1005    9.7730    0.0000 C   0  0  0  0  0  0  0  0  0  0  0  0
   -3.9583    5.1814    0.0000 C   0  0  0  0  0  0  0  0  0  0  0  0
   -4.4218    3.7548    0.0000 C   0  0  0  0  0  0  0  0  0  0  0  0
   -5.8891    3.4430    0.0000 C   0  0  0  0  0  0  0  0  0  0  0  0
   -6.8928    4.5577    0.0000 C   0  0  0  0  0  0  0  0  0  0  0  0
   -8.3600    4.2458    0.0000 C   0  0  0  0  0  0  0  0  0  0  0  0
   -8.8235    2.8192    0.0000 C   0  0  0  0  0  0  0  0  0  0  0  0
  -10.2907    2.5074    0.0000 C   0  0  0  0  0  0  0  0  0  0  0  0
  -10.7543    1.0808    0.0000 O   0  0  0  0  0  0  0  0  0  0  0  0
  -11.2944    3.6221    0.0000 N   0  0  0  0  0  0  0  0  0  0  0  0
  -12.7617    3.3102    0.0000 O   0  0  0  0  0  0  0  0  0  0  0  0
   -7.8198    1.7045    0.0000 C   0  0  0  0  0  0  0  0  0  0  0  0
   -6.3526    2.0164    0.0000 C   0  0  0  0  0  0  0  0  0  0  0  0
   -0.7500   -1.2990    0.0000 C   0  0  0  0  0  0  0  0  0  0  0  0
   -1.5000   -2.5981    0.0000 O   0  0  0  0  0  0  0  0  0  0  0  0
    0.7500   -1.2990    0.0000 N   0  0  0  0  0  0  0  0  0  0  0  0
  1  2  1  0
  2  3  2  0
  3  4  1  0
  4  5  2  0
  5  6  1  0
  6  7  2  0
  7  8  1  0
  8  9  2  0
  9 10  1  0
 10 11  1  0
 11 12  2  0
 12 13  1  0
 13 14  2  0
 14 15  1  0
 15 16  2  0
 15 17  1  0
 17 18  1  0
 18 19  2  0
 19 20  1  0
 20 21  2  0
 21 22  1  0
 22 23  2  0
 14 24  1  0
 24 25  2  0
 25 26  1  0
 26 27  2  0
 27 28  1  0
 28 29  2  0
 29 30  1  0
 30 31  2  0
 30 32  1  0
 32 33  1  0
 29 34  1  0
 34 35  1  0
  5 36  1  0
 36 37  2  0
 36 38  1  0
 38  2  1  0
 10  6  1  0
 25 11  1  0
 35 26  1  0
 23 18  1  0
M  END
>  <Title>  (770) 
idABDPgen7

$$$$

     RDKit          2D

 45 51  0  0  0  0  0  0  0  0999 V2000
    3.0000    0.0000    0.0000 C   0  0  0  0  0  0  0  0  0  0  0  0
    1.5000    0.0000    0.0000 C   0  0  0  0  0  0  0  0  0  0  0  0
    0.7500   -1.2990    0.0000 C   0  0  0  0  0  0  0  0  0  0  0  0
   -0.7500   -1.2990    0.0000 C   0  0  0  0  0  0  0  0  0  0  0  0
   -1.5000    0.0000    0.0000 C   0  0  0  0  0  0  0  0  0  0  0  0
   -3.0000    0.0000    0.0000 C   0  0  0  0  0  0  0  0  0  0  0  0
   -3.8817   -1.2135    0.0000 N   0  0  0  0  0  0  0  0  0  0  0  0
   -5.3083   -0.7500    0.0000 N   0  0  0  0  0  0  0  0  0  0  0  0
   -5.3083    0.7500    0.0000 N   0  0  0  0  0  0  0  0  0  0  0  0
   -3.8817    1.2135    0.0000 N   0  0  0  0  0  0  0  0  0  0  0  0
   -3.4182    2.6401    0.0000 C   0  0  0  0  0  0  0  0  0  0  0  0
   -1.9509    2.9520    0.0000 C   0  0  0  0  0  0  0  0  0  0  0  0
   -1.4874    4.3786    0.0000 C   0  0  0  0  0  0  0  0  0  0  0  0
   -2.4911    5.4933    0.0000 C   0  0  0  0  0  0  0  0  0  0  0  0
   -3.9583    5.1814    0.0000 C   0  0  0  0  0  0  0  0  0  0  0  0
   -4.4218    3.7548    0.0000 C   0  0  0  0  0  0  0  0  0  0  0  0
   -5.8891    3.4430    0.0000 C   0  0  0  0  0  0  0  0  0  0  0  0
   -6.8928    4.5577    0.0000 C   0  0  0  0  0  0  0  0  0  0  0  0
   -8.3600    4.2458    0.0000 C   0  0  0  0  0  0  0  0  0  0  0  0
   -8.8235    2.8192    0.0000 C   0  0  0  0  0  0  0  0  0  0  0  0
  -10.2907    2.5074    0.0000 C   0  0  0  0  0  0  0  0  0  0  0  0
  -11.2944    3.6221    0.0000 C   0  0  0  0  0  0  0  0  0  0  0  0
  -12.7617    3.3102    0.0000 C   0  0  0  0  0  0  0  0  0  0  0  0
  -13.2252    1.8836    0.0000 C   0  0  0  0  0  0  0  0  0  0  0  0
  -14.6924    1.5718    0.0000 C   0  0  0  0  0  0  0  0  0  0  0  0
  -15.1559    0.1452    0.0000 O   0  0  0  0  0  0  0  0  0  0  0  0
  -15.6961    2.6865    0.0000 N   0  0  0  0  0  0  0  0  0  0  0  0
  -17.1633    2.3746    0.0000 C   0  0  0  0  0  0  0  0  0  0  0  0
  -18.1670    3.4893    0.0000 C   0  0  0  0  0  0  0  0  0  0  0  0
  -19.6342    3.1775    0.0000 N   0  0  0  0  0  0  0  0  0  0  0  0
  -20.0978    1.7509    0.0000 N   0  0  0  0  0  0  0  0  0  0  0  0
  -19.0941    0.6362    0.0000 C   0  0  0  0  0  0  0  0  0  0  0  0
  -17.6268    0.9480    0.0000 N   0  0  0  0  0  0  0  0  0  0  0  0
  -12.2215    0.7689    0.0000 C   0  0  0  0  0  0  0  0  0  0  0  0
  -10.7543    1.0808    0.0000 C   0  0  0  0  0  0  0  0  0  0  0  0
   -9.7506   -0.0339    0.0000 C   0  0  0  0  0  0  0  0  0  0  0  0
  -10.2141   -1.4605    0.0000 C   0  0  0  0  0  0  0  0  0  0  0  0
   -9.2104   -2.5752    0.0000 C   0  0  0  0  0  0  0  0  0  0  0  0
   -7.7432   -2.2634    0.0000 C   0  0  0  0  0  0  0  0  0  0  0  0
   -7.2796   -0.8368    0.0000 C   0  0  0  0  0  0  0  0  0  0  0  0
   -8.2833    0.2779    0.0000 C   0  0  0  0  0  0  0  0  0  0  0  0
   -7.8198    1.7045    0.0000 C   0  0  0  0  0  0  0  0  0  0  0  0
   -6.3526    2.0164    0.0000 C   0  0  0  0  0  0  0  0  0  0  0  0
   -0.7500    1.2990    0.0000 C   0  0  0  0  0  0  0  0  0  0  0  0
    0.7500    1.2990    0.0000 C   0  0  0  0  0  0  0  0  0  0  0  0
  1  2  1  0
  2  3  2  0
  3  4  1  0
  4  5  2  0
  5  6  1  0
  6  7  2  0
  7  8  1  0
  8  9  2  0
  9 10  1  0
 10 11  1  0
 11 12  1  0
 12 13  1  0
 13 14  1  0
 14 15  1  0
 15 16  1  0
 16 17  1  0
 17 18  2  0
 18 19  1  0
 19 20  2  0
 20 21  1  0
 21 22  2  0
 22 23  1  0
 23 24  2  0
 24 25  1  0
 25 26  2  0
 25 27  1  0
 27 28  1  0
 28 29  2  0
 29 30  1  0
 30 31  2  0
 31 32  1  0
 32 33  2  0
 24 34  1  0
 34 35  2  0
 35 36  1  0
 36 37  2  0
 37 38  1  0
 38 39  2  0
 39 40  1  0
 40 41  2  0
 20 42  1  0
 42 43  2  0
  5 44  1  0
 44 45  2  0
 45  2  1  0
 10  6  1  0
 16 11  1  0
 43 17  1  0
 35 21  1  0
 41 36  1  0
 33 28  1  0
M  END
>  <Title>  (771) 
idABDQgen7

$$$$

     RDKit          2D

 23 25  0  0  0  0  0  0  0  0999 V2000
    0.7716    6.7511    0.0000 C   0  0  0  0  0  0  0  0  0  0  0  0
   -0.2487    5.6515    0.0000 O   0  0  0  0  0  0  0  0  0  0  0  0
    0.1935    4.2182    0.0000 C   0  0  0  0  0  0  0  0  0  0  0  0
    1.6559    3.8844    0.0000 C   0  0  0  0  0  0  0  0  0  0  0  0
    2.0980    2.4510    0.0000 C   0  0  0  0  0  0  0  0  0  0  0  0
    1.0777    1.3515    0.0000 C   0  0  0  0  0  0  0  0  0  0  0  0
    1.7286    0.0000    0.0000 C   0  0  0  0  0  0  0  0  0  0  0  0
    1.0777   -1.3515    0.0000 C   0  0  0  0  0  0  0  0  0  0  0  0
   -0.3846   -1.6852    0.0000 C   0  0  0  0  0  0  0  0  0  0  0  0
   -1.5574   -0.7500    0.0000 C   0  0  0  0  0  0  0  0  0  0  0  0
   -2.9088   -1.4008    0.0000 C   0  0  0  0  0  0  0  0  0  0  0  0
   -3.0209   -2.8966    0.0000 O   0  0  0  0  0  0  0  0  0  0  0  0
   -4.1482   -0.5558    0.0000 N   0  0  0  0  0  0  0  0  0  0  0  0
   -5.4997   -1.2067    0.0000 C   0  0  0  0  0  0  0  0  0  0  0  0
   -6.7390   -0.3617    0.0000 C   0  0  0  0  0  0  0  0  0  0  0  0
   -8.0905   -1.0125    0.0000 C   0  0  0  0  0  0  0  0  0  0  0  0
   -8.2026   -2.5083    0.0000 C   0  0  0  0  0  0  0  0  0  0  0  0
   -6.9632   -3.3533    0.0000 C   0  0  0  0  0  0  0  0  0  0  0  0
   -5.6118   -2.7025    0.0000 C   0  0  0  0  0  0  0  0  0  0  0  0
   -1.5574    0.7500    0.0000 C   0  0  0  0  0  0  0  0  0  0  0  0
   -0.3846    1.6852    0.0000 C   0  0  0  0  0  0  0  0  0  0  0  0
   -0.8268    3.1186    0.0000 C   0  0  0  0  0  0  0  0  0  0  0  0
   -2.2892    3.4524    0.0000 O   0  0  0  0  0  0  0  0  0  0  0  0
  1  2  1  0
  2  3  1  0
  3  4  2  0
  4  5  1  0
  5  6  2  0
  6  7  1  0
  7  8  2  0
  8  9  1  0
  9 10  2  0
 10 11  1  0
 11 12  2  0
 11 13  1  0
 13 14  1  0
 14 15  2  0
 15 16  1  0
 16 17  2  0
 17 18  1  0
 18 19  2  0
 10 20  1  0
 20 21  2  0
 21 22  1  0
 22 23  2  0
 22  3  1  0
 21  6  1  0
 19 14  1  0
M  END
>  <Title>  (772) 
idABDRgen7

$$$$

     RDKit          2D

 32 36  0  0  0  0  0  0  0  0999 V2000
    3.9786   -1.2990    0.0000 C   0  0  0  0  0  0  0  0  0  0  0  0
    3.2286   -0.0000    0.0000 O   0  0  0  0  0  0  0  0  0  0  0  0
    1.7286    0.0000    0.0000 C   0  0  0  0  0  0  0  0  0  0  0  0
    1.0777    1.3515    0.0000 C   0  0  0  0  0  0  0  0  0  0  0  0
   -0.3846    1.6852    0.0000 C   0  0  0  0  0  0  0  0  0  0  0  0
   -1.5574    0.7500    0.0000 C   0  0  0  0  0  0  0  0  0  0  0  0
   -2.9088    1.4008    0.0000 C   0  0  0  0  0  0  0  0  0  0  0  0
   -4.2297    0.6900    0.0000 N   0  0  0  0  0  0  0  0  0  0  0  0
   -5.3139    1.7266    0.0000 N   0  0  0  0  0  0  0  0  0  0  0  0
   -4.6631    3.0781    0.0000 N   0  0  0  0  0  0  0  0  0  0  0  0
   -3.1767    2.8767    0.0000 N   0  0  0  0  0  0  0  0  0  0  0  0
   -2.1401    3.9609    0.0000 C   0  0  0  0  0  0  0  0  0  0  0  0
   -2.4079    5.4368    0.0000 C   0  0  0  0  0  0  0  0  0  0  0  0
   -1.0870    6.1476    0.0000 C   0  0  0  0  0  0  0  0  0  0  0  0
   -0.0028    5.1110    0.0000 C   0  0  0  0  0  0  0  0  0  0  0  0
    1.4731    5.3789    0.0000 C   0  0  0  0  0  0  0  0  0  0  0  0
    2.5573    4.3423    0.0000 N   0  0  0  0  0  0  0  0  0  0  0  0
    3.8781    5.0531    0.0000 N   0  0  0  0  0  0  0  0  0  0  0  0
    3.6103    6.5290    0.0000 N   0  0  0  0  0  0  0  0  0  0  0  0
    2.1239    6.7303    0.0000 N   0  0  0  0  0  0  0  0  0  0  0  0
    1.4131    8.0512    0.0000 C   0  0  0  0  0  0  0  0  0  0  0  0
    2.2016    9.3272    0.0000 C   0  0  0  0  0  0  0  0  0  0  0  0
    1.4908   10.6481    0.0000 C   0  0  0  0  0  0  0  0  0  0  0  0
   -0.0085   10.6930    0.0000 C   0  0  0  0  0  0  0  0  0  0  0  0
   -0.7971    9.4170    0.0000 C   0  0  0  0  0  0  0  0  0  0  0  0
   -0.0862    8.0961    0.0000 C   0  0  0  0  0  0  0  0  0  0  0  0
   -0.6537    3.7596    0.0000 C   0  0  0  0  0  0  0  0  0  0  0  0
    0.0571    2.4387    0.0000 O   0  0  0  0  0  0  0  0  0  0  0  0
   -1.5574   -0.7500    0.0000 N   0  0  0  0  0  0  0  0  0  0  0  0
   -0.3846   -1.6852    0.0000 C   0  0  0  0  0  0  0  0  0  0  0  0
   -0.7184   -3.1476    0.0000 O   0  0  0  0  0  0  0  0  0  0  0  0
    1.0777   -1.3515    0.0000 C   0  0  0  0  0  0  0  0  0  0  0  0
  1  2  1  0
  2  3  1  0
  3  4  2  0
  4  5  1  0
  5  6  2  0
  6  7  1  0
  7  8  2  0
  8  9  1  0
  9 10  2  0
 10 11  1  0
 11 12  1  0
 12 13  2  0
 13 14  1  0
 14 15  2  0
 15 16  1  0
 16 17  2  0
 17 18  1  0
 18 19  2  0
 19 20  1  0
 20 21  1  0
 21 22  2  0
 22 23  1  0
 23 24  2  0
 24 25  1  0
 25 26  2  0
 15 27  1  0
 27 28  2  0
  6 29  1  0
 29 30  1  0
 30 31  2  0
 30 32  1  0
 32  3  1  0
 11  7  1  0
 27 12  1  0
 20 16  1  0
 26 21  1  0
M  END
>  <Title>  (773) 
idABDSgen7

$$$$

     RDKit          2D

 12 12  0  0  0  0  0  0  0  0999 V2000
    6.0000   -2.5981    0.0000 C   0  0  0  0  0  0  0  0  0  0  0  0
    5.2500   -1.2990    0.0000 C   0  0  0  0  0  0  0  0  0  0  0  0
    6.0000    0.0000    0.0000 O   0  0  0  0  0  0  0  0  0  0  0  0
    3.7500   -1.2990    0.0000 N   0  0  0  0  0  0  0  0  0  0  0  0
    3.0000    0.0000    0.0000 C   0  0  0  0  0  0  0  0  0  0  0  0
    3.7500    1.2990    0.0000 O   0  0  0  0  0  0  0  0  0  0  0  0
    1.5000    0.0000    0.0000 C   0  0  0  0  0  0  0  0  0  0  0  0
    0.7500   -1.2990    0.0000 C   0  0  0  0  0  0  0  0  0  0  0  0
   -0.7500   -1.2990    0.0000 C   0  0  0  0  0  0  0  0  0  0  0  0
   -1.5000    0.0000    0.0000 C   0  0  0  0  0  0  0  0  0  0  0  0
   -0.7500    1.2990    0.0000 C   0  0  0  0  0  0  0  0  0  0  0  0
    0.7500    1.2990    0.0000 C   0  0  0  0  0  0  0  0  0  0  0  0
  1  2  1  0
  2  3  2  0
  2  4  1  0
  4  5  1  0
  5  6  2  0
  5  7  1  0
  7  8  1  0
  8  9  1  0
  9 10  1  0
 10 11  1  0
 11 12  1  0
 12  7  1  0
M  END
>  <Title>  (774) 
idABDTgen7

$$$$

     RDKit          2D

 47 53  0  0  0  0  0  0  0  0999 V2000
    1.2824   -5.8041    0.0000 C   0  0  0  0  0  0  0  0  0  0  0  0
    0.2138   -4.7514    0.0000 O   0  0  0  0  0  0  0  0  0  0  0  0
   -1.2321   -5.1505    0.0000 C   0  0  0  0  0  0  0  0  0  0  0  0
   -1.6095   -6.6022    0.0000 C   0  0  0  0  0  0  0  0  0  0  0  0
   -3.0554   -7.0013    0.0000 C   0  0  0  0  0  0  0  0  0  0  0  0
   -4.1240   -5.9486    0.0000 C   0  0  0  0  0  0  0  0  0  0  0  0
   -5.5699   -6.3476    0.0000 C   0  0  0  0  0  0  0  0  0  0  0  0
   -6.0970   -7.7520    0.0000 N   0  0  0  0  0  0  0  0  0  0  0  0
   -7.5955   -7.6847    0.0000 N   0  0  0  0  0  0  0  0  0  0  0  0
   -7.9945   -6.2387    0.0000 N   0  0  0  0  0  0  0  0  0  0  0  0
   -6.7427   -5.4124    0.0000 N   0  0  0  0  0  0  0  0  0  0  0  0
   -6.6754   -3.9139    0.0000 C   0  0  0  0  0  0  0  0  0  0  0  0
   -5.3440   -3.2229    0.0000 C   0  0  0  0  0  0  0  0  0  0  0  0
   -5.2767   -1.7244    0.0000 C   0  0  0  0  0  0  0  0  0  0  0  0
   -6.5408   -0.9169    0.0000 C   0  0  0  0  0  0  0  0  0  0  0  0
   -6.4735    0.5816    0.0000 N   0  0  0  0  0  0  0  0  0  0  0  0
   -5.1421    1.2725    0.0000 C   0  0  0  0  0  0  0  0  0  0  0  0
   -3.8780    0.4650    0.0000 O   0  0  0  0  0  0  0  0  0  0  0  0
   -5.0748    2.7710    0.0000 C   0  0  0  0  0  0  0  0  0  0  0  0
   -6.2476    3.7063    0.0000 N   0  0  0  0  0  0  0  0  0  0  0  0
   -5.7205    5.1106    0.0000 N   0  0  0  0  0  0  0  0  0  0  0  0
   -4.2220    5.0433    0.0000 N   0  0  0  0  0  0  0  0  0  0  0  0
   -3.8230    3.5974    0.0000 N   0  0  0  0  0  0  0  0  0  0  0  0
   -2.4186    3.0703    0.0000 C   0  0  0  0  0  0  0  0  0  0  0  0
   -2.2841    1.5763    0.0000 C   0  0  0  0  0  0  0  0  0  0  0  0
   -1.0323    0.7500    0.0000 C   0  0  0  0  0  0  0  0  0  0  0  0
    0.3943    1.2135    0.0000 C   0  0  0  0  0  0  0  0  0  0  0  0
    1.4309    0.1293    0.0000 N   0  0  0  0  0  0  0  0  0  0  0  0
    1.0103   -1.3105    0.0000 C   0  0  0  0  0  0  0  0  0  0  0  0
   -0.4470   -1.6661    0.0000 O   0  0  0  0  0  0  0  0  0  0  0  0
    2.0468   -2.3947    0.0000 C   0  0  0  0  0  0  0  0  0  0  0  0
    3.5041   -2.0391    0.0000 C   0  0  0  0  0  0  0  0  0  0  0  0
    4.5407   -3.1232    0.0000 C   0  0  0  0  0  0  0  0  0  0  0  0
    4.1200   -4.5631    0.0000 C   0  0  0  0  0  0  0  0  0  0  0  0
    2.6628   -4.9187    0.0000 C   0  0  0  0  0  0  0  0  0  0  0  0
    1.6262   -3.8345    0.0000 C   0  0  0  0  0  0  0  0  0  0  0  0
    0.9214    2.6179    0.0000 N   0  0  0  0  0  0  0  0  0  0  0  0
    2.3838    2.9517    0.0000 N   0  0  0  0  0  0  0  0  0  0  0  0
    2.5182    4.4456    0.0000 N   0  0  0  0  0  0  0  0  0  0  0  0
    1.1389    5.0352    0.0000 N   0  0  0  0  0  0  0  0  0  0  0  0
    0.1520    3.9056    0.0000 C   0  0  0  0  0  0  0  0  0  0  0  0
   -1.3344    4.1069    0.0000 C   0  0  0  0  0  0  0  0  0  0  0  0
   -1.7979    5.5335    0.0000 O   0  0  0  0  0  0  0  0  0  0  0  0
   -7.8722   -1.6079    0.0000 N   0  0  0  0  0  0  0  0  0  0  0  0
   -7.9395   -3.1064    0.0000 N   0  0  0  0  0  0  0  0  0  0  0  0
   -3.7466   -4.4968    0.0000 N   0  0  0  0  0  0  0  0  0  0  0  0
   -2.3007   -4.0978    0.0000 N   0  0  0  0  0  0  0  0  0  0  0  0
  1  2  1  0
  2  3  1  0
  3  4  2  0
  4  5  1  0
  5  6  2  0
  6  7  1  0
  7  8  2  0
  8  9  1  0
  9 10  2  0
 10 11  1  0
 11 12  1  0
 12 13  2  0
 13 14  1  0
 14 15  2  0
 15 16  1  0
 16 17  1  0
 17 18  2  0
 17 19  1  0
 19 20  2  0
 20 21  1  0
 21 22  2  0
 22 23  1  0
 23 24  1  0
 24 25  2  0
 25 26  1  0
 26 27  2  0
 27 28  1  0
 28 29  1  0
 29 30  2  0
 29 31  1  0
 31 32  2  0
 32 33  1  0
 33 34  2  0
 34 35  1  0
 35 36  2  0
 27 37  1  0
 37 38  1  0
 38 39  2  0
 39 40  1  0
 40 41  2  0
 41 42  1  0
 42 43  2  0
 15 44  1  0
 44 45  2  0
  6 46  1  0
 46 47  2  0
 47  3  1  0
 11  7  1  0
 45 12  1  0
 23 19  1  0
 42 24  1  0
 36 31  1  0
 41 37  1  0
M  END
>  <Title>  (775) 
idABDUgen7

$$$$

     RDKit          2D

 22 22  0  0  0  0  0  0  0  0999 V2000
    6.2943    0.0000    0.0000 C   0  0  0  0  0  0  0  0  0  0  0  0
    4.7943    0.0000    0.0000 C   0  0  0  0  0  0  0  0  0  0  0  0
    4.5597   -1.4815    0.0000 C   0  0  0  0  0  0  0  0  0  0  0  0
    3.8787   -2.8180    0.0000 C   0  0  0  0  0  0  0  0  0  0  0  0
    2.8180   -3.8787    0.0000 C   0  0  0  0  0  0  0  0  0  0  0  0
    1.4815   -4.5597    0.0000 C   0  0  0  0  0  0  0  0  0  0  0  0
   -0.0000   -4.7943    0.0000 C   0  0  0  0  0  0  0  0  0  0  0  0
   -1.4815   -4.5597    0.0000 C   0  0  0  0  0  0  0  0  0  0  0  0
   -2.8180   -3.8787    0.0000 C   0  0  0  0  0  0  0  0  0  0  0  0
   -3.8787   -2.8180    0.0000 C   0  0  0  0  0  0  0  0  0  0  0  0
   -4.5597   -1.4815    0.0000 C   0  0  0  0  0  0  0  0  0  0  0  0
   -5.9863   -1.9451    0.0000 C   0  0  0  0  0  0  0  0  0  0  0  0
   -4.7943    0.0000    0.0000 C   0  0  0  0  0  0  0  0  0  0  0  0
   -4.5597    1.4815    0.0000 C   0  0  0  0  0  0  0  0  0  0  0  0
   -3.8787    2.8180    0.0000 C   0  0  0  0  0  0  0  0  0  0  0  0
   -2.8180    3.8787    0.0000 C   0  0  0  0  0  0  0  0  0  0  0  0
   -1.4815    4.5597    0.0000 C   0  0  0  0  0  0  0  0  0  0  0  0
    0.0000    4.7943    0.0000 C   0  0  0  0  0  0  0  0  0  0  0  0
    1.4815    4.5597    0.0000 C   0  0  0  0  0  0  0  0  0  0  0  0
    2.8180    3.8787    0.0000 C   0  0  0  0  0  0  0  0  0  0  0  0
    3.8787    2.8180    0.0000 C   0  0  0  0  0  0  0  0  0  0  0  0
    4.5597    1.4815    0.0000 C   0  0  0  0  0  0  0  0  0  0  0  0
  1  2  1  0
  2  3  2  0
  3  4  1  0
  4  5  2  0
  5  6  1  0
  6  7  2  0
  7  8  1  0
  8  9  2  0
  9 10  1  0
 10 11  2  0
 11 12  1  0
 11 13  1  0
 13 14  2  0
 14 15  1  0
 15 16  2  0
 16 17  1  0
 17 18  2  0
 18 19  1  0
 19 20  2  0
 20 21  1  0
 21 22  2  0
 22  2  1  0
M  END
>  <Title>  (776) 
idABDVgen7

$$$$

     RDKit          2D

 31 35  0  0  0  0  0  0  0  0999 V2000
    3.0000    0.0000    0.0000 C   0  0  0  0  0  0  0  0  0  0  0  0
    1.5000    0.0000    0.0000 C   0  0  0  0  0  0  0  0  0  0  0  0
    0.7500   -1.2990    0.0000 C   0  0  0  0  0  0  0  0  0  0  0  0
   -0.7500   -1.2990    0.0000 C   0  0  0  0  0  0  0  0  0  0  0  0
   -1.5000    0.0000    0.0000 C   0  0  0  0  0  0  0  0  0  0  0  0
   -3.0000    0.0000    0.0000 N   0  0  0  0  0  0  0  0  0  0  0  0
   -3.7500    1.2990    0.0000 N   0  0  0  0  0  0  0  0  0  0  0  0
   -5.2500    1.2990    0.0000 N   0  0  0  0  0  0  0  0  0  0  0  0
   -6.0000    0.0000    0.0000 N   0  0  0  0  0  0  0  0  0  0  0  0
   -5.2500   -1.2990    0.0000 N   0  0  0  0  0  0  0  0  0  0  0  0
   -3.7500   -1.2990    0.0000 N   0  0  0  0  0  0  0  0  0  0  0  0
   -3.0000   -2.5981    0.0000 C   0  0  0  0  0  0  0  0  0  0  0  0
   -3.7500   -3.8971    0.0000 C   0  0  0  0  0  0  0  0  0  0  0  0
   -3.0000   -5.1962    0.0000 C   0  0  0  0  0  0  0  0  0  0  0  0
   -1.5000   -5.1962    0.0000 C   0  0  0  0  0  0  0  0  0  0  0  0
   -0.7500   -6.4952    0.0000 C   0  0  0  0  0  0  0  0  0  0  0  0
    0.7418   -6.6520    0.0000 N   0  0  0  0  0  0  0  0  0  0  0  0
    1.0537   -8.1192    0.0000 N   0  0  0  0  0  0  0  0  0  0  0  0
   -0.2454   -8.8692    0.0000 N   0  0  0  0  0  0  0  0  0  0  0  0
   -1.3601   -7.8655    0.0000 N   0  0  0  0  0  0  0  0  0  0  0  0
   -2.8273   -8.1774    0.0000 C   0  0  0  0  0  0  0  0  0  0  0  0
   -3.8310   -7.0627    0.0000 C   0  0  0  0  0  0  0  0  0  0  0  0
   -5.2982   -7.3745    0.0000 C   0  0  0  0  0  0  0  0  0  0  0  0
   -5.7618   -8.8011    0.0000 C   0  0  0  0  0  0  0  0  0  0  0  0
   -4.7581   -9.9158    0.0000 C   0  0  0  0  0  0  0  0  0  0  0  0
   -3.2909   -9.6040    0.0000 C   0  0  0  0  0  0  0  0  0  0  0  0
   -0.7500   -3.8971    0.0000 C   0  0  0  0  0  0  0  0  0  0  0  0
   -1.5000   -2.5981    0.0000 C   0  0  0  0  0  0  0  0  0  0  0  0
   -0.7500    1.2990    0.0000 C   0  0  0  0  0  0  0  0  0  0  0  0
   -1.5000    2.5981    0.0000 O   0  0  0  0  0  0  0  0  0  0  0  0
    0.7500    1.2990    0.0000 N   0  0  0  0  0  0  0  0  0  0  0  0
  1  2  1  0
  2  3  2  0
  3  4  1  0
  4  5  2  0
  5  6  1  0
  6  7  1  0
  7  8  2  0
  8  9  1  0
  9 10  2  0
 10 11  1  0
 11 12  1  0
 12 13  2  0
 13 14  1  0
 14 15  2  0
 15 16  1  0
 16 17  2  0
 17 18  1  0
 18 19  2  0
 19 20  1  0
 20 21  1  0
 21 22  2  0
 22 23  1  0
 23 24  2  0
 24 25  1  0
 25 26  2  0
 15 27  1  0
 27 28  2  0
  5 29  1  0
 29 30  2  0
 29 31  1  0
 31  2  1  0
 11  6  1  0
 28 12  1  0
 20 16  1  0
 26 21  1  0
M  END
>  <Title>  (777) 
idABDWgen7

$$$$

     RDKit          2D

 49 55  0  0  0  0  0  0  0  0999 V2000
    0.1694  -14.3870    0.0000 C   0  0  0  0  0  0  0  0  0  0  0  0
   -0.2440  -12.9451    0.0000 O   0  0  0  0  0  0  0  0  0  0  0  0
   -1.6995  -12.5822    0.0000 C   0  0  0  0  0  0  0  0  0  0  0  0
   -2.7414  -13.6612    0.0000 C   0  0  0  0  0  0  0  0  0  0  0  0
   -4.1969  -13.2983    0.0000 C   0  0  0  0  0  0  0  0  0  0  0  0
   -4.6103  -11.8564    0.0000 C   0  0  0  0  0  0  0  0  0  0  0  0
   -6.0658  -11.4935    0.0000 C   0  0  0  0  0  0  0  0  0  0  0  0
   -7.1078  -12.5725    0.0000 O   0  0  0  0  0  0  0  0  0  0  0  0
   -6.4792  -10.0516    0.0000 N   0  0  0  0  0  0  0  0  0  0  0  0
   -7.9347   -9.6888    0.0000 C   0  0  0  0  0  0  0  0  0  0  0  0
   -9.0838  -10.6529    0.0000 N   0  0  0  0  0  0  0  0  0  0  0  0
  -10.3558   -9.8581    0.0000 N   0  0  0  0  0  0  0  0  0  0  0  0
   -9.9929   -8.4026    0.0000 N   0  0  0  0  0  0  0  0  0  0  0  0
   -8.4966   -8.2980    0.0000 N   0  0  0  0  0  0  0  0  0  0  0  0
   -7.7017   -7.0259    0.0000 C   0  0  0  0  0  0  0  0  0  0  0  0
   -6.2026   -7.0783    0.0000 C   0  0  0  0  0  0  0  0  0  0  0  0
   -5.4077   -5.8062    0.0000 C   0  0  0  0  0  0  0  0  0  0  0  0
   -6.1120   -4.4818    0.0000 C   0  0  0  0  0  0  0  0  0  0  0  0
   -5.3171   -3.2097    0.0000 C   0  0  0  0  0  0  0  0  0  0  0  0
   -3.8499   -3.5216    0.0000 C   0  0  0  0  0  0  0  0  0  0  0  0
   -2.5254   -2.8174    0.0000 C   0  0  0  0  0  0  0  0  0  0  0  0
   -1.9635   -1.4266    0.0000 C   0  0  0  0  0  0  0  0  0  0  0  0
   -0.7500   -2.3083    0.0000 C   0  0  0  0  0  0  0  0  0  0  0  0
    0.7500   -2.3083    0.0000 C   0  0  0  0  0  0  0  0  0  0  0  0
    1.9635   -1.4266    0.0000 C   0  0  0  0  0  0  0  0  0  0  0  0
    2.4271    0.0000    0.0000 C   0  0  0  0  0  0  0  0  0  0  0  0
    1.9635    1.4266    0.0000 C   0  0  0  0  0  0  0  0  0  0  0  0
    0.7500    2.3083    0.0000 C   0  0  0  0  0  0  0  0  0  0  0  0
   -0.7500    2.3083    0.0000 C   0  0  0  0  0  0  0  0  0  0  0  0
   -1.9635    1.4266    0.0000 C   0  0  0  0  0  0  0  0  0  0  0  0
   -2.4271    0.0000    0.0000 C   0  0  0  0  0  0  0  0  0  0  0  0
   -3.6991    0.7949    0.0000 N   0  0  0  0  0  0  0  0  0  0  0  0
   -5.1845    0.5861    0.0000 N   0  0  0  0  0  0  0  0  0  0  0  0
   -6.1882   -0.5286    0.0000 N   0  0  0  0  0  0  0  0  0  0  0  0
   -6.2406   -2.0277    0.0000 N   0  0  0  0  0  0  0  0  0  0  0  0
   -7.6110   -4.4294    0.0000 C   0  0  0  0  0  0  0  0  0  0  0  0
   -8.4059   -5.7015    0.0000 C   0  0  0  0  0  0  0  0  0  0  0  0
   -9.9050   -5.6491    0.0000 C   0  0  0  0  0  0  0  0  0  0  0  0
  -10.6092   -4.3247    0.0000 C   0  0  0  0  0  0  0  0  0  0  0  0
  -12.1083   -4.2724    0.0000 C   0  0  0  0  0  0  0  0  0  0  0  0
  -12.9032   -5.5444    0.0000 C   0  0  0  0  0  0  0  0  0  0  0  0
  -14.4023   -5.4921    0.0000 C   0  0  0  0  0  0  0  0  0  0  0  0
  -15.1971   -6.7642    0.0000 O   0  0  0  0  0  0  0  0  0  0  0  0
  -15.1065   -4.1677    0.0000 N   0  0  0  0  0  0  0  0  0  0  0  0
  -16.6056   -4.1153    0.0000 O   0  0  0  0  0  0  0  0  0  0  0  0
  -12.1990   -6.8689    0.0000 C   0  0  0  0  0  0  0  0  0  0  0  0
  -10.6999   -6.9212    0.0000 C   0  0  0  0  0  0  0  0  0  0  0  0
   -3.5684  -10.7774    0.0000 C   0  0  0  0  0  0  0  0  0  0  0  0
   -2.1129  -11.1403    0.0000 N   0  0  0  0  0  0  0  0  0  0  0  0
  1  2  1  0
  2  3  1  0
  3  4  2  0
  4  5  1  0
  5  6  2  0
  6  7  1  0
  7  8  2  0
  7  9  1  0
  9 10  1  0
 10 11  2  0
 11 12  1  0
 12 13  2  0
 13 14  1  0
 14 15  1  0
 15 16  2  0
 16 17  1  0
 17 18  2  0
 18 19  1  0
 19 20  2  0
 20 21  1  0
 21 22  2  0
 22 23  1  0
 23 24  2  0
 24 25  1  0
 25 26  2  0
 26 27  1  0
 27 28  2  0
 28 29  1  0
 29 30  2  0
 30 31  1  0
 31 32  2  0
 32 33  1  0
 33 34  2  0
 34 35  1  0
 18 36  1  0
 36 37  2  0
 37 38  1  0
 38 39  2  0
 39 40  1  0
 40 41  2  0
 41 42  1  0
 42 43  2  0
 42 44  1  0
 44 45  1  0
 41 46  1  0
 46 47  1  0
  6 48  1  0
 48 49  1  0
 49  3  1  0
 14 10  1  0
 37 15  1  0
 47 38  1  0
 35 19  1  0
 31 22  1  0
 35 25  1  0
M  END
>  <Title>  (778) 
idABDXgen7

$$$$

     RDKit          2D

 32 34  0  0  0  0  0  0  0  0999 V2000
    4.9121   -1.2990    0.0000 C   0  0  0  0  0  0  0  0  0  0  0  0
    4.1621    0.0000    0.0000 O   0  0  0  0  0  0  0  0  0  0  0  0
    2.6621    0.0000    0.0000 C   0  0  0  0  0  0  0  0  0  0  0  0
    2.2395    1.4392    0.0000 C   0  0  0  0  0  0  0  0  0  0  0  0
    1.1059    2.4215    0.0000 C   0  0  0  0  0  0  0  0  0  0  0  0
   -0.3789    2.6350    0.0000 C   0  0  0  0  0  0  0  0  0  0  0  0
   -1.7433    2.0119    0.0000 C   0  0  0  0  0  0  0  0  0  0  0  0
   -2.5543    0.7500    0.0000 C   0  0  0  0  0  0  0  0  0  0  0  0
   -2.5543   -0.7500    0.0000 C   0  0  0  0  0  0  0  0  0  0  0  0
   -1.7433   -2.0119    0.0000 C   0  0  0  0  0  0  0  0  0  0  0  0
   -0.3789   -2.6350    0.0000 C   0  0  0  0  0  0  0  0  0  0  0  0
    1.1059   -2.4215    0.0000 C   0  0  0  0  0  0  0  0  0  0  0  0
    1.7290   -3.7860    0.0000 C   0  0  0  0  0  0  0  0  0  0  0  0
    3.2222   -3.9286    0.0000 O   0  0  0  0  0  0  0  0  0  0  0  0
    0.8589   -5.0078    0.0000 N   0  0  0  0  0  0  0  0  0  0  0  0
    1.4820   -6.3723    0.0000 C   0  0  0  0  0  0  0  0  0  0  0  0
    2.9522   -6.6702    0.0000 N   0  0  0  0  0  0  0  0  0  0  0  0
    3.1231   -8.1604    0.0000 N   0  0  0  0  0  0  0  0  0  0  0  0
    1.7587   -8.7835    0.0000 N   0  0  0  0  0  0  0  0  0  0  0  0
    0.7444   -7.6784    0.0000 N   0  0  0  0  0  0  0  0  0  0  0  0
   -0.7458   -7.8494    0.0000 C   0  0  0  0  0  0  0  0  0  0  0  0
   -1.6390   -6.6443    0.0000 C   0  0  0  0  0  0  0  0  0  0  0  0
   -3.1292   -6.8153    0.0000 C   0  0  0  0  0  0  0  0  0  0  0  0
   -3.7262   -8.1914    0.0000 C   0  0  0  0  0  0  0  0  0  0  0  0
   -5.2165   -8.3624    0.0000 C   0  0  0  0  0  0  0  0  0  0  0  0
   -5.8135   -9.7384    0.0000 O   0  0  0  0  0  0  0  0  0  0  0  0
   -6.1096   -7.1573    0.0000 N   0  0  0  0  0  0  0  0  0  0  0  0
   -7.5999   -7.3283    0.0000 O   0  0  0  0  0  0  0  0  0  0  0  0
   -2.8330   -9.3964    0.0000 N   0  0  0  0  0  0  0  0  0  0  0  0
   -1.3428   -9.2255    0.0000 C   0  0  0  0  0  0  0  0  0  0  0  0
   -0.4496  -10.4305    0.0000 O   0  0  0  0  0  0  0  0  0  0  0  0
    2.2395   -1.4392    0.0000 N   0  0  0  0  0  0  0  0  0  0  0  0
  1  2  1  0
  2  3  1  0
  3  4  2  0
  4  5  1  0
  5  6  2  0
  6  7  1  0
  7  8  2  0
  8  9  1  0
  9 10  2  0
 10 11  1  0
 11 12  2  0
 12 13  1  0
 13 14  2  0
 13 15  1  0
 15 16  1  0
 16 17  2  0
 17 18  1  0
 18 19  2  0
 19 20  1  0
 20 21  1  0
 21 22  2  0
 22 23  1  0
 23 24  2  0
 24 25  1  0
 25 26  2  0
 25 27  1  0
 27 28  1  0
 24 29  1  0
 29 30  1  0
 30 31  2  0
 12 32  1  0
 32  3  1  0
 20 16  1  0
 30 21  1  0
M  END
>  <Title>  (779) 
idABDYgen7

$$$$

     RDKit          2D

 18 20  0  0  0  0  0  0  0  0999 V2000
    3.0000    0.0000    0.0000 O   0  0  0  0  0  0  0  0  0  0  0  0
    1.5000    0.0000    0.0000 C   0  0  0  0  0  0  0  0  0  0  0  0
    0.7500   -1.2990    0.0000 C   0  0  0  0  0  0  0  0  0  0  0  0
   -0.7500   -1.2990    0.0000 C   0  0  0  0  0  0  0  0  0  0  0  0
   -1.5000    0.0000    0.0000 C   0  0  0  0  0  0  0  0  0  0  0  0
   -3.0000    0.0000    0.0000 C   0  0  0  0  0  0  0  0  0  0  0  0
   -3.7500    1.2990    0.0000 C   0  0  0  0  0  0  0  0  0  0  0  0
   -5.2500    1.2990    0.0000 C   0  0  0  0  0  0  0  0  0  0  0  0
   -6.0000    0.0000    0.0000 C   0  0  0  0  0  0  0  0  0  0  0  0
   -5.2500   -1.2990    0.0000 N   0  0  0  0  0  0  0  0  0  0  0  0
   -3.7500   -1.2990    0.0000 C   0  0  0  0  0  0  0  0  0  0  0  0
   -3.0000   -2.5981    0.0000 N   0  0  0  0  0  0  0  0  0  0  0  0
   -1.5082   -2.7549    0.0000 N   0  0  0  0  0  0  0  0  0  0  0  0
   -1.1963   -4.2221    0.0000 N   0  0  0  0  0  0  0  0  0  0  0  0
   -2.4954   -4.9721    0.0000 N   0  0  0  0  0  0  0  0  0  0  0  0
   -3.6101   -3.9684    0.0000 N   0  0  0  0  0  0  0  0  0  0  0  0
   -0.7500    1.2990    0.0000 C   0  0  0  0  0  0  0  0  0  0  0  0
    0.7500    1.2990    0.0000 C   0  0  0  0  0  0  0  0  0  0  0  0
  1  2  1  0
  2  3  2  0
  3  4  1  0
  4  5  2  0
  5  6  1  0
  6  7  2  0
  7  8  1  0
  8  9  2  0
  9 10  1  0
 10 11  2  0
 11 12  1  0
 12 13  1  0
 13 14  2  0
 14 15  1  0
 15 16  2  0
  5 17  1  0
 17 18  1  0
 18  2  1  0
 11  6  1  0
 16 12  1  0
M  END
>  <Title>  (780) 
idABDZgen7

$$$$

     RDKit          2D

 33 37  0  0  0  0  0  0  0  0999 V2000
    3.0000    0.0000    0.0000 C   0  0  0  0  0  0  0  0  0  0  0  0
    1.5000    0.0000    0.0000 C   0  0  0  0  0  0  0  0  0  0  0  0
    0.7500    1.2990    0.0000 C   0  0  0  0  0  0  0  0  0  0  0  0
   -0.7500    1.2990    0.0000 C   0  0  0  0  0  0  0  0  0  0  0  0
   -1.5000    0.0000    0.0000 C   0  0  0  0  0  0  0  0  0  0  0  0
   -3.0000    0.0000    0.0000 C   0  0  0  0  0  0  0  0  0  0  0  0
   -3.7500   -1.2990    0.0000 O   0  0  0  0  0  0  0  0  0  0  0  0
   -3.7500    1.2990    0.0000 N   0  0  0  0  0  0  0  0  0  0  0  0
   -5.2500    1.2990    0.0000 C   0  0  0  0  0  0  0  0  0  0  0  0
   -6.1317    0.0855    0.0000 N   0  0  0  0  0  0  0  0  0  0  0  0
   -7.5583    0.5490    0.0000 N   0  0  0  0  0  0  0  0  0  0  0  0
   -7.5583    2.0490    0.0000 N   0  0  0  0  0  0  0  0  0  0  0  0
   -6.1317    2.5126    0.0000 N   0  0  0  0  0  0  0  0  0  0  0  0
   -5.6682    3.9391    0.0000 C   0  0  0  0  0  0  0  0  0  0  0  0
   -6.5498    5.1527    0.0000 C   0  0  0  0  0  0  0  0  0  0  0  0
   -5.6682    6.3662    0.0000 C   0  0  0  0  0  0  0  0  0  0  0  0
   -4.2416    5.9027    0.0000 C   0  0  0  0  0  0  0  0  0  0  0  0
   -3.0280    6.7844    0.0000 C   0  0  0  0  0  0  0  0  0  0  0  0
   -3.0280    8.2844    0.0000 N   0  0  0  0  0  0  0  0  0  0  0  0
   -1.6015    8.7479    0.0000 N   0  0  0  0  0  0  0  0  0  0  0  0
   -0.7198    7.5344    0.0000 N   0  0  0  0  0  0  0  0  0  0  0  0
   -1.6015    6.3208    0.0000 N   0  0  0  0  0  0  0  0  0  0  0  0
   -1.1379    4.8942    0.0000 C   0  0  0  0  0  0  0  0  0  0  0  0
   -2.1416    3.7795    0.0000 C   0  0  0  0  0  0  0  0  0  0  0  0
   -1.6781    2.3529    0.0000 C   0  0  0  0  0  0  0  0  0  0  0  0
   -0.2109    2.0411    0.0000 C   0  0  0  0  0  0  0  0  0  0  0  0
    0.7928    3.1558    0.0000 C   0  0  0  0  0  0  0  0  0  0  0  0
    0.3293    4.5824    0.0000 C   0  0  0  0  0  0  0  0  0  0  0  0
   -4.2416    4.4027    0.0000 C   0  0  0  0  0  0  0  0  0  0  0  0
   -3.0280    3.5210    0.0000 O   0  0  0  0  0  0  0  0  0  0  0  0
   -0.7500   -1.2990    0.0000 C   0  0  0  0  0  0  0  0  0  0  0  0
   -1.5000   -2.5981    0.0000 O   0  0  0  0  0  0  0  0  0  0  0  0
    0.7500   -1.2990    0.0000 N   0  0  0  0  0  0  0  0  0  0  0  0
  1  2  1  0
  2  3  2  0
  3  4  1  0
  4  5  2  0
  5  6  1  0
  6  7  2  0
  6  8  1  0
  8  9  1  0
  9 10  2  0
 10 11  1  0
 11 12  2  0
 12 13  1  0
 13 14  1  0
 14 15  2  0
 15 16  1  0
 16 17  2  0
 17 18  1  0
 18 19  2  0
 19 20  1  0
 20 21  2  0
 21 22  1  0
 22 23  1  0
 23 24  2  0
 24 25  1  0
 25 26  2  0
 26 27  1  0
 27 28  2  0
 17 29  1  0
 29 30  2  0
  5 31  1  0
 31 32  2  0
 31 33  1  0
 33  2  1  0
 13  9  1  0
 29 14  1  0
 22 18  1  0
 28 23  1  0
M  END
>  <Title>  (781) 
idABEAgen7

$$$$

     RDKit          2D

 37 42  0  0  0  0  0  0  0  0999 V2000
    3.0000    0.0000    0.0000 C   0  0  0  0  0  0  0  0  0  0  0  0
    1.5000    0.0000    0.0000 C   0  0  0  0  0  0  0  0  0  0  0  0
    0.7500   -1.2990    0.0000 C   0  0  0  0  0  0  0  0  0  0  0  0
   -0.7500   -1.2990    0.0000 C   0  0  0  0  0  0  0  0  0  0  0  0
   -1.5000    0.0000    0.0000 C   0  0  0  0  0  0  0  0  0  0  0  0
   -3.0000    0.0000    0.0000 C   0  0  0  0  0  0  0  0  0  0  0  0
   -3.8817   -1.2135    0.0000 N   0  0  0  0  0  0  0  0  0  0  0  0
   -5.3083   -0.7500    0.0000 N   0  0  0  0  0  0  0  0  0  0  0  0
   -5.3083    0.7500    0.0000 N   0  0  0  0  0  0  0  0  0  0  0  0
   -3.8817    1.2135    0.0000 N   0  0  0  0  0  0  0  0  0  0  0  0
   -3.4182    2.6401    0.0000 C   0  0  0  0  0  0  0  0  0  0  0  0
   -1.9509    2.9520    0.0000 C   0  0  0  0  0  0  0  0  0  0  0  0
   -1.4874    4.3786    0.0000 C   0  0  0  0  0  0  0  0  0  0  0  0
   -2.4911    5.4933    0.0000 C   0  0  0  0  0  0  0  0  0  0  0  0
   -2.0276    6.9199    0.0000 C   0  0  0  0  0  0  0  0  0  0  0  0
   -2.9093    8.1334    0.0000 N   0  0  0  0  0  0  0  0  0  0  0  0
   -2.0276    9.3469    0.0000 N   0  0  0  0  0  0  0  0  0  0  0  0
   -0.6010    8.8834    0.0000 N   0  0  0  0  0  0  0  0  0  0  0  0
   -0.6010    7.3834    0.0000 N   0  0  0  0  0  0  0  0  0  0  0  0
    0.6125    6.5017    0.0000 C   0  0  0  0  0  0  0  0  0  0  0  0
    0.4557    5.0099    0.0000 C   0  0  0  0  0  0  0  0  0  0  0  0
    1.6693    4.1283    0.0000 C   0  0  0  0  0  0  0  0  0  0  0  0
    3.0396    4.7384    0.0000 C   0  0  0  0  0  0  0  0  0  0  0  0
    3.1964    6.2301    0.0000 C   0  0  0  0  0  0  0  0  0  0  0  0
    1.9829    7.1118    0.0000 C   0  0  0  0  0  0  0  0  0  0  0  0
   -3.9583    5.1814    0.0000 C   0  0  0  0  0  0  0  0  0  0  0  0
   -4.4218    3.7548    0.0000 C   0  0  0  0  0  0  0  0  0  0  0  0
   -5.8891    3.4430    0.0000 C   0  0  0  0  0  0  0  0  0  0  0  0
   -6.8928    4.5577    0.0000 C   0  0  0  0  0  0  0  0  0  0  0  0
   -8.3600    4.2458    0.0000 C   0  0  0  0  0  0  0  0  0  0  0  0
   -8.8235    2.8192    0.0000 C   0  0  0  0  0  0  0  0  0  0  0  0
  -10.2907    2.5074    0.0000 C   0  0  0  0  0  0  0  0  0  0  0  0
   -7.8198    1.7045    0.0000 C   0  0  0  0  0  0  0  0  0  0  0  0
   -8.2833    0.2779    0.0000 O   0  0  0  0  0  0  0  0  0  0  0  0
   -6.3526    2.0164    0.0000 N   0  0  0  0  0  0  0  0  0  0  0  0
   -0.7500    1.2990    0.0000 N   0  0  0  0  0  0  0  0  0  0  0  0
    0.7500    1.2990    0.0000 N   0  0  0  0  0  0  0  0  0  0  0  0
  1  2  1  0
  2  3  2  0
  3  4  1  0
  4  5  2  0
  5  6  1  0
  6  7  2  0
  7  8  1  0
  8  9  2  0
  9 10  1  0
 10 11  1  0
 11 12  2  0
 12 13  1  0
 13 14  2  0
 14 15  1  0
 15 16  2  0
 16 17  1  0
 17 18  2  0
 18 19  1  0
 19 20  1  0
 20 21  2  0
 21 22  1  0
 22 23  2  0
 23 24  1  0
 24 25  2  0
 14 26  1  0
 26 27  2  0
 27 28  1  0
 28 29  2  0
 29 30  1  0
 30 31  2  0
 31 32  1  0
 31 33  1  0
 33 34  2  0
 33 35  1  0
  5 36  1  0
 36 37  1  0
 37  2  1  0
 10  6  1  0
 27 11  1  0
 35 28  1  0
 19 15  1  0
 25 20  1  0
M  END
>  <Title>  (782) 
idABEBgen7

$$$$

     RDKit          2D

 42 47  0  0  0  0  0  0  0  0999 V2000
    3.0000    0.0000    0.0000 C   0  0  0  0  0  0  0  0  0  0  0  0
    1.5000    0.0000    0.0000 C   0  0  0  0  0  0  0  0  0  0  0  0
    0.7500   -1.2990    0.0000 C   0  0  0  0  0  0  0  0  0  0  0  0
   -0.7500   -1.2990    0.0000 C   0  0  0  0  0  0  0  0  0  0  0  0
   -1.5000    0.0000    0.0000 C   0  0  0  0  0  0  0  0  0  0  0  0
   -3.0000    0.0000    0.0000 C   0  0  0  0  0  0  0  0  0  0  0  0
   -3.8817   -1.2135    0.0000 N   0  0  0  0  0  0  0  0  0  0  0  0
   -5.3083   -0.7500    0.0000 N   0  0  0  0  0  0  0  0  0  0  0  0
   -5.3083    0.7500    0.0000 N   0  0  0  0  0  0  0  0  0  0  0  0
   -3.8817    1.2135    0.0000 N   0  0  0  0  0  0  0  0  0  0  0  0
   -3.4182    2.6401    0.0000 C   0  0  0  0  0  0  0  0  0  0  0  0
   -1.9509    2.9520    0.0000 C   0  0  0  0  0  0  0  0  0  0  0  0
   -1.4874    4.3786    0.0000 C   0  0  0  0  0  0  0  0  0  0  0  0
   -2.4911    5.4933    0.0000 C   0  0  0  0  0  0  0  0  0  0  0  0
   -2.0276    6.9199    0.0000 C   0  0  0  0  0  0  0  0  0  0  0  0
   -3.0313    8.0346    0.0000 O   0  0  0  0  0  0  0  0  0  0  0  0
   -0.5604    7.2317    0.0000 N   0  0  0  0  0  0  0  0  0  0  0  0
   -0.0968    8.6583    0.0000 C   0  0  0  0  0  0  0  0  0  0  0  0
    1.3704    8.9702    0.0000 C   0  0  0  0  0  0  0  0  0  0  0  0
    1.8339   10.3968    0.0000 C   0  0  0  0  0  0  0  0  0  0  0  0
    0.8302   11.5115    0.0000 C   0  0  0  0  0  0  0  0  0  0  0  0
   -0.6370   11.1996    0.0000 C   0  0  0  0  0  0  0  0  0  0  0  0
   -1.1005    9.7730    0.0000 C   0  0  0  0  0  0  0  0  0  0  0  0
   -3.9583    5.1814    0.0000 C   0  0  0  0  0  0  0  0  0  0  0  0
   -4.4218    3.7548    0.0000 C   0  0  0  0  0  0  0  0  0  0  0  0
   -5.8891    3.4430    0.0000 C   0  0  0  0  0  0  0  0  0  0  0  0
   -6.8928    4.5577    0.0000 C   0  0  0  0  0  0  0  0  0  0  0  0
   -8.3600    4.2458    0.0000 C   0  0  0  0  0  0  0  0  0  0  0  0
   -8.8235    2.8192    0.0000 C   0  0  0  0  0  0  0  0  0  0  0  0
  -10.2907    2.5074    0.0000 C   0  0  0  0  0  0  0  0  0  0  0  0
  -10.7543    1.0808    0.0000 O   0  0  0  0  0  0  0  0  0  0  0  0
  -11.2944    3.6221    0.0000 N   0  0  0  0  0  0  0  0  0  0  0  0
  -12.7617    3.3102    0.0000 C   0  0  0  0  0  0  0  0  0  0  0  0
  -13.7653    4.4249    0.0000 C   0  0  0  0  0  0  0  0  0  0  0  0
  -15.2326    4.1131    0.0000 C   0  0  0  0  0  0  0  0  0  0  0  0
  -15.6961    2.6865    0.0000 C   0  0  0  0  0  0  0  0  0  0  0  0
  -14.6924    1.5718    0.0000 C   0  0  0  0  0  0  0  0  0  0  0  0
  -13.2252    1.8836    0.0000 C   0  0  0  0  0  0  0  0  0  0  0  0
   -7.8198    1.7045    0.0000 C   0  0  0  0  0  0  0  0  0  0  0  0
   -6.3526    2.0164    0.0000 C   0  0  0  0  0  0  0  0  0  0  0  0
   -0.7500    1.2990    0.0000 C   0  0  0  0  0  0  0  0  0  0  0  0
    0.7500    1.2990    0.0000 C   0  0  0  0  0  0  0  0  0  0  0  0
  1  2  1  0
  2  3  2  0
  3  4  1  0
  4  5  2  0
  5  6  1  0
  6  7  2  0
  7  8  1  0
  8  9  2  0
  9 10  1  0
 10 11  1  0
 11 12  2  0
 12 13  1  0
 13 14  2  0
 14 15  1  0
 15 16  2  0
 15 17  1  0
 17 18  1  0
 18 19  2  0
 19 20  1  0
 20 21  2  0
 21 22  1  0
 22 23  2  0
 14 24  1  0
 24 25  2  0
 25 26  1  0
 26 27  2  0
 27 28  1  0
 28 29  2  0
 29 30  1  0
 30 31  2  0
 30 32  1  0
 32 33  1  0
 33 34  2  0
 34 35  1  0
 35 36  2  0
 36 37  1  0
 37 38  2  0
 29 39  1  0
 39 40  2  0
  5 41  1  0
 41 42  2  0
 42  2  1  0
 10  6  1  0
 25 11  1  0
 40 26  1  0
 23 18  1  0
 38 33  1  0
M  END
>  <Title>  (783) 
idABECgen7

$$$$

     RDKit          2D

 39 44  0  0  0  0  0  0  0  0999 V2000
    3.0000    0.0000    0.0000 C   0  0  0  0  0  0  0  0  0  0  0  0
    1.5000    0.0000    0.0000 C   0  0  0  0  0  0  0  0  0  0  0  0
    0.7500   -1.2990    0.0000 C   0  0  0  0  0  0  0  0  0  0  0  0
   -0.7500   -1.2990    0.0000 C   0  0  0  0  0  0  0  0  0  0  0  0
   -1.5000    0.0000    0.0000 C   0  0  0  0  0  0  0  0  0  0  0  0
   -3.0000    0.0000    0.0000 C   0  0  0  0  0  0  0  0  0  0  0  0
   -3.7500   -1.2990    0.0000 O   0  0  0  0  0  0  0  0  0  0  0  0
   -3.7500    1.2990    0.0000 N   0  0  0  0  0  0  0  0  0  0  0  0
   -5.2500    1.2990    0.0000 C   0  0  0  0  0  0  0  0  0  0  0  0
   -6.1317    0.0855    0.0000 N   0  0  0  0  0  0  0  0  0  0  0  0
   -7.5583    0.5490    0.0000 N   0  0  0  0  0  0  0  0  0  0  0  0
   -7.5583    2.0490    0.0000 N   0  0  0  0  0  0  0  0  0  0  0  0
   -6.1317    2.5126    0.0000 N   0  0  0  0  0  0  0  0  0  0  0  0
   -5.6682    3.9391    0.0000 C   0  0  0  0  0  0  0  0  0  0  0  0
   -4.2009    4.2510    0.0000 C   0  0  0  0  0  0  0  0  0  0  0  0
   -3.7374    5.6776    0.0000 C   0  0  0  0  0  0  0  0  0  0  0  0
   -4.7411    6.7923    0.0000 C   0  0  0  0  0  0  0  0  0  0  0  0
   -4.2776    8.2189    0.0000 C   0  0  0  0  0  0  0  0  0  0  0  0
   -2.8104    8.5308    0.0000 C   0  0  0  0  0  0  0  0  0  0  0  0
   -2.3468    9.9574    0.0000 C   0  0  0  0  0  0  0  0  0  0  0  0
   -3.3505   11.0721    0.0000 C   0  0  0  0  0  0  0  0  0  0  0  0
   -2.8870   12.4987    0.0000 C   0  0  0  0  0  0  0  0  0  0  0  0
   -1.4198   12.8105    0.0000 C   0  0  0  0  0  0  0  0  0  0  0  0
   -0.9563   14.2371    0.0000 C   0  0  0  0  0  0  0  0  0  0  0  0
   -1.9599   15.3518    0.0000 C   0  0  0  0  0  0  0  0  0  0  0  0
   -3.4272   15.0400    0.0000 C   0  0  0  0  0  0  0  0  0  0  0  0
   -3.8907   13.6134    0.0000 C   0  0  0  0  0  0  0  0  0  0  0  0
   -4.8177   10.7602    0.0000 C   0  0  0  0  0  0  0  0  0  0  0  0
   -5.2813    9.3336    0.0000 C   0  0  0  0  0  0  0  0  0  0  0  0
   -6.7485    9.0218    0.0000 C   0  0  0  0  0  0  0  0  0  0  0  0
   -7.7522   10.1365    0.0000 C   0  0  0  0  0  0  0  0  0  0  0  0
   -9.2194    9.8246    0.0000 C   0  0  0  0  0  0  0  0  0  0  0  0
   -9.6829    8.3980    0.0000 C   0  0  0  0  0  0  0  0  0  0  0  0
   -8.6792    7.2833    0.0000 C   0  0  0  0  0  0  0  0  0  0  0  0
   -7.2120    7.5952    0.0000 C   0  0  0  0  0  0  0  0  0  0  0  0
   -6.2083    6.4805    0.0000 C   0  0  0  0  0  0  0  0  0  0  0  0
   -6.6718    5.0539    0.0000 C   0  0  0  0  0  0  0  0  0  0  0  0
   -0.7500    1.2990    0.0000 C   0  0  0  0  0  0  0  0  0  0  0  0
    0.7500    1.2990    0.0000 C   0  0  0  0  0  0  0  0  0  0  0  0
  1  2  1  0
  2  3  2  0
  3  4  1  0
  4  5  2  0
  5  6  1  0
  6  7  2  0
  6  8  1  0
  8  9  1  0
  9 10  2  0
 10 11  1  0
 11 12  2  0
 12 13  1  0
 13 14  1  0
 14 15  2  0
 15 16  1  0
 16 17  2  0
 17 18  1  0
 18 19  2  0
 19 20  1  0
 20 21  2  0
 21 22  1  0
 22 23  2  0
 23 24  1  0
 24 25  2  0
 25 26  1  0
 26 27  2  0
 21 28  1  0
 28 29  2  0
 29 30  1  0
 30 31  2  0
 31 32  1  0
 32 33  2  0
 33 34  1  0
 34 35  2  0
 17 36  1  0
 36 37  1  0
  5 38  1  0
 38 39  2  0
 39  2  1  0
 13  9  1  0
 37 14  1  0
 29 18  1  0
 35 30  1  0
 27 22  1  0
M  END
>  <Title>  (784) 
idABEDgen7

$$$$

     RDKit          2D

 27 30  0  0  0  0  0  0  0  0999 V2000
    3.0000    0.0000    0.0000 C   0  0  0  0  0  0  0  0  0  0  0  0
    1.5000    0.0000    0.0000 C   0  0  0  0  0  0  0  0  0  0  0  0
    0.7500   -1.2990    0.0000 C   0  0  0  0  0  0  0  0  0  0  0  0
   -0.7500   -1.2990    0.0000 C   0  0  0  0  0  0  0  0  0  0  0  0
   -1.5000    0.0000    0.0000 C   0  0  0  0  0  0  0  0  0  0  0  0
   -3.0000    0.0000    0.0000 C   0  0  0  0  0  0  0  0  0  0  0  0
   -3.7500   -1.2990    0.0000 O   0  0  0  0  0  0  0  0  0  0  0  0
   -3.7500    1.2990    0.0000 N   0  0  0  0  0  0  0  0  0  0  0  0
   -5.2500    1.2990    0.0000 C   0  0  0  0  0  0  0  0  0  0  0  0
   -6.1317    0.0855    0.0000 N   0  0  0  0  0  0  0  0  0  0  0  0
   -7.5583    0.5490    0.0000 N   0  0  0  0  0  0  0  0  0  0  0  0
   -7.5583    2.0490    0.0000 N   0  0  0  0  0  0  0  0  0  0  0  0
   -6.1317    2.5126    0.0000 N   0  0  0  0  0  0  0  0  0  0  0  0
   -5.6682    3.9391    0.0000 C   0  0  0  0  0  0  0  0  0  0  0  0
   -4.2009    4.2510    0.0000 C   0  0  0  0  0  0  0  0  0  0  0  0
   -3.7374    5.6776    0.0000 C   0  0  0  0  0  0  0  0  0  0  0  0
   -4.7411    6.7923    0.0000 C   0  0  0  0  0  0  0  0  0  0  0  0
   -4.2776    8.2189    0.0000 C   0  0  0  0  0  0  0  0  0  0  0  0
   -2.8104    8.5308    0.0000 C   0  0  0  0  0  0  0  0  0  0  0  0
   -2.3468    9.9574    0.0000 C   0  0  0  0  0  0  0  0  0  0  0  0
   -3.3505   11.0721    0.0000 C   0  0  0  0  0  0  0  0  0  0  0  0
   -4.8177   10.7602    0.0000 C   0  0  0  0  0  0  0  0  0  0  0  0
   -5.2813    9.3336    0.0000 C   0  0  0  0  0  0  0  0  0  0  0  0
   -6.2083    6.4805    0.0000 C   0  0  0  0  0  0  0  0  0  0  0  0
   -6.6718    5.0539    0.0000 C   0  0  0  0  0  0  0  0  0  0  0  0
   -0.7500    1.2990    0.0000 C   0  0  0  0  0  0  0  0  0  0  0  0
    0.7500    1.2990    0.0000 C   0  0  0  0  0  0  0  0  0  0  0  0
  1  2  1  0
  2  3  2  0
  3  4  1  0
  4  5  2  0
  5  6  1  0
  6  7  2  0
  6  8  1  0
  8  9  1  0
  9 10  2  0
 10 11  1  0
 11 12  2  0
 12 13  1  0
 13 14  1  0
 14 15  2  0
 15 16  1  0
 16 17  2  0
 17 18  1  0
 18 19  2  0
 19 20  1  0
 20 21  2  0
 21 22  1  0
 22 23  2  0
 17 24  1  0
 24 25  2  0
  5 26  1  0
 26 27  2  0
 27  2  1  0
 13  9  1  0
 25 14  1  0
 23 18  1  0
M  END
>  <Title>  (785) 
idABEEgen7

$$$$

     RDKit          2D

 18 20  0  0  0  0  0  0  0  0999 V2000
    3.0000    0.0000    0.0000 O   0  0  0  0  0  0  0  0  0  0  0  0
    1.5000    0.0000    0.0000 C   0  0  0  0  0  0  0  0  0  0  0  0
    0.7500   -1.2990    0.0000 C   0  0  0  0  0  0  0  0  0  0  0  0
   -0.7500   -1.2990    0.0000 C   0  0  0  0  0  0  0  0  0  0  0  0
   -1.5000    0.0000    0.0000 C   0  0  0  0  0  0  0  0  0  0  0  0
   -3.0000    0.0000    0.0000 C   0  0  0  0  0  0  0  0  0  0  0  0
   -3.8817   -1.2135    0.0000 N   0  0  0  0  0  0  0  0  0  0  0  0
   -5.3083   -0.7500    0.0000 N   0  0  0  0  0  0  0  0  0  0  0  0
   -5.3083    0.7500    0.0000 N   0  0  0  0  0  0  0  0  0  0  0  0
   -3.8817    1.2135    0.0000 N   0  0  0  0  0  0  0  0  0  0  0  0
   -3.4182    2.6401    0.0000 C   0  0  0  0  0  0  0  0  0  0  0  0
   -1.9509    2.9520    0.0000 C   0  0  0  0  0  0  0  0  0  0  0  0
   -1.4874    4.3786    0.0000 C   0  0  0  0  0  0  0  0  0  0  0  0
   -2.4911    5.4933    0.0000 C   0  0  0  0  0  0  0  0  0  0  0  0
   -3.9583    5.1814    0.0000 C   0  0  0  0  0  0  0  0  0  0  0  0
   -4.4218    3.7548    0.0000 C   0  0  0  0  0  0  0  0  0  0  0  0
   -0.7500    1.2990    0.0000 C   0  0  0  0  0  0  0  0  0  0  0  0
    0.7500    1.2990    0.0000 C   0  0  0  0  0  0  0  0  0  0  0  0
  1  2  1  0
  2  3  2  0
  3  4  1  0
  4  5  2  0
  5  6  1  0
  6  7  2  0
  7  8  1  0
  8  9  2  0
  9 10  1  0
 10 11  1  0
 11 12  2  0
 12 13  1  0
 13 14  2  0
 14 15  1  0
 15 16  2  0
  5 17  1  0
 17 18  2  0
 18  2  1  0
 10  6  1  0
 16 11  1  0
M  END
>  <Title>  (786) 
idABEFgen7

$$$$

     RDKit          2D

 23 23  0  0  0  0  0  0  0  0999 V2000
    7.2821   -1.2990    0.0000 C   0  0  0  0  0  0  0  0  0  0  0  0
    6.5321    0.0000    0.0000 O   0  0  0  0  0  0  0  0  0  0  0  0
    5.0321    0.0000    0.0000 C   0  0  0  0  0  0  0  0  0  0  0  0
    4.8086    1.4832    0.0000 C   0  0  0  0  0  0  0  0  0  0  0  0
    4.1577    2.8347    0.0000 C   0  0  0  0  0  0  0  0  0  0  0  0
    3.1375    3.9343    0.0000 C   0  0  0  0  0  0  0  0  0  0  0  0
    1.8384    4.6843    0.0000 C   0  0  0  0  0  0  0  0  0  0  0  0
    0.3761    5.0181    0.0000 C   0  0  0  0  0  0  0  0  0  0  0  0
   -1.1198    4.9060    0.0000 C   0  0  0  0  0  0  0  0  0  0  0  0
   -2.5161    4.3580    0.0000 C   0  0  0  0  0  0  0  0  0  0  0  0
   -3.6888    3.4227    0.0000 C   0  0  0  0  0  0  0  0  0  0  0  0
   -4.5338    2.1834    0.0000 C   0  0  0  0  0  0  0  0  0  0  0  0
   -4.9759    0.7500    0.0000 C   0  0  0  0  0  0  0  0  0  0  0  0
   -4.9759   -0.7500    0.0000 C   0  0  0  0  0  0  0  0  0  0  0  0
   -4.5338   -2.1834    0.0000 C   0  0  0  0  0  0  0  0  0  0  0  0
   -3.6888   -3.4227    0.0000 C   0  0  0  0  0  0  0  0  0  0  0  0
   -2.5161   -4.3580    0.0000 C   0  0  0  0  0  0  0  0  0  0  0  0
   -1.1198   -4.9060    0.0000 C   0  0  0  0  0  0  0  0  0  0  0  0
    0.3761   -5.0181    0.0000 C   0  0  0  0  0  0  0  0  0  0  0  0
    1.8384   -4.6843    0.0000 C   0  0  0  0  0  0  0  0  0  0  0  0
    3.1375   -3.9343    0.0000 C   0  0  0  0  0  0  0  0  0  0  0  0
    4.1577   -2.8347    0.0000 C   0  0  0  0  0  0  0  0  0  0  0  0
    4.8086   -1.4832    0.0000 C   0  0  0  0  0  0  0  0  0  0  0  0
  1  2  1  0
  2  3  1  0
  3  4  2  0
  4  5  1  0
  5  6  2  0
  6  7  1  0
  7  8  2  0
  8  9  1  0
  9 10  2  0
 10 11  2  0
 11 12  1  0
 12 13  2  0
 13 14  1  0
 14 15  2  0
 15 16  1  0
 16 17  2  0
 17 18  1  0
 18 19  2  0
 19 20  1  0
 20 21  2  0
 21 22  1  0
 22 23  2  0
 23  3  1  0
M  END
>  <Title>  (787) 
idABEGgen7

$$$$

     RDKit          2D

 35 39  0  0  0  0  0  0  0  0999 V2000
    3.0000    0.0000    0.0000 C   0  0  0  0  0  0  0  0  0  0  0  0
    1.5000    0.0000    0.0000 C   0  0  0  0  0  0  0  0  0  0  0  0
    0.7500   -1.2990    0.0000 C   0  0  0  0  0  0  0  0  0  0  0  0
   -0.7500   -1.2990    0.0000 C   0  0  0  0  0  0  0  0  0  0  0  0
   -1.5000    0.0000    0.0000 C   0  0  0  0  0  0  0  0  0  0  0  0
   -3.0000    0.0000    0.0000 C   0  0  0  0  0  0  0  0  0  0  0  0
   -3.7500   -1.2990    0.0000 O   0  0  0  0  0  0  0  0  0  0  0  0
   -3.7500    1.2990    0.0000 N   0  0  0  0  0  0  0  0  0  0  0  0
   -5.2500    1.2990    0.0000 C   0  0  0  0  0  0  0  0  0  0  0  0
   -6.1317    0.0855    0.0000 N   0  0  0  0  0  0  0  0  0  0  0  0
   -7.5583    0.5490    0.0000 N   0  0  0  0  0  0  0  0  0  0  0  0
   -7.5583    2.0490    0.0000 N   0  0  0  0  0  0  0  0  0  0  0  0
   -6.1317    2.5126    0.0000 N   0  0  0  0  0  0  0  0  0  0  0  0
   -5.6682    3.9391    0.0000 C   0  0  0  0  0  0  0  0  0  0  0  0
   -6.5498    5.1527    0.0000 C   0  0  0  0  0  0  0  0  0  0  0  0
   -5.6682    6.3662    0.0000 C   0  0  0  0  0  0  0  0  0  0  0  0
   -4.2416    5.9027    0.0000 C   0  0  0  0  0  0  0  0  0  0  0  0
   -3.0280    6.7844    0.0000 C   0  0  0  0  0  0  0  0  0  0  0  0
   -3.0280    8.2844    0.0000 C   0  0  0  0  0  0  0  0  0  0  0  0
   -1.6015    8.7479    0.0000 C   0  0  0  0  0  0  0  0  0  0  0  0
   -0.7198    7.5344    0.0000 C   0  0  0  0  0  0  0  0  0  0  0  0
    0.7802    7.5344    0.0000 C   0  0  0  0  0  0  0  0  0  0  0  0
    1.5302    6.2353    0.0000 C   0  0  0  0  0  0  0  0  0  0  0  0
    3.0302    6.2353    0.0000 C   0  0  0  0  0  0  0  0  0  0  0  0
    3.7802    7.5344    0.0000 C   0  0  0  0  0  0  0  0  0  0  0  0
    3.0302    8.8334    0.0000 C   0  0  0  0  0  0  0  0  0  0  0  0
    1.5302    8.8334    0.0000 C   0  0  0  0  0  0  0  0  0  0  0  0
    0.7802   10.1324    0.0000 C   0  0  0  0  0  0  0  0  0  0  0  0
   -1.6015    6.3208    0.0000 C   0  0  0  0  0  0  0  0  0  0  0  0
   -1.1379    4.8942    0.0000 O   0  0  0  0  0  0  0  0  0  0  0  0
   -4.2416    4.4027    0.0000 C   0  0  0  0  0  0  0  0  0  0  0  0
   -3.0280    3.5210    0.0000 O   0  0  0  0  0  0  0  0  0  0  0  0
   -0.7500    1.2990    0.0000 C   0  0  0  0  0  0  0  0  0  0  0  0
   -1.5000    2.5981    0.0000 O   0  0  0  0  0  0  0  0  0  0  0  0
    0.7500    1.2990    0.0000 N   0  0  0  0  0  0  0  0  0  0  0  0
  1  2  1  0
  2  3  2  0
  3  4  1  0
  4  5  2  0
  5  6  1  0
  6  7  2  0
  6  8  1  0
  8  9  1  0
  9 10  2  0
 10 11  1  0
 11 12  2  0
 12 13  1  0
 13 14  1  0
 14 15  2  0
 15 16  1  0
 16 17  2  0
 17 18  1  0
 18 19  2  0
 19 20  1  0
 20 21  2  0
 21 22  1  0
 22 23  2  0
 23 24  1  0
 24 25  2  0
 25 26  1  0
 26 27  2  0
 27 28  1  0
 21 29  1  0
 29 30  2  0
 17 31  1  0
 31 32  2  0
  5 33  1  0
 33 34  2  0
 33 35  1  0
 35  2  1  0
 13  9  1  0
 31 14  1  0
 29 18  1  0
 27 22  1  0
M  END
>  <Title>  (788) 
idABEHgen7

$$$$

     RDKit          2D

 18 19  0  0  0  0  0  0  0  0999 V2000
    3.7500   -1.2990    0.0000 C   0  0  0  0  0  0  0  0  0  0  0  0
    3.0000    0.0000    0.0000 O   0  0  0  0  0  0  0  0  0  0  0  0
    1.5000    0.0000    0.0000 C   0  0  0  0  0  0  0  0  0  0  0  0
    0.7500   -1.2990    0.0000 C   0  0  0  0  0  0  0  0  0  0  0  0
   -0.7500   -1.2990    0.0000 C   0  0  0  0  0  0  0  0  0  0  0  0
   -1.5000    0.0000    0.0000 C   0  0  0  0  0  0  0  0  0  0  0  0
   -3.0000    0.0000    0.0000 N   0  0  0  0  0  0  0  0  0  0  0  0
   -3.7500    1.2990    0.0000 C   0  0  0  0  0  0  0  0  0  0  0  0
   -3.0000    2.5981    0.0000 O   0  0  0  0  0  0  0  0  0  0  0  0
   -5.2500    1.2990    0.0000 C   0  0  0  0  0  0  0  0  0  0  0  0
   -6.0000    2.5981    0.0000 C   0  0  0  0  0  0  0  0  0  0  0  0
   -7.5000    2.5981    0.0000 C   0  0  0  0  0  0  0  0  0  0  0  0
   -8.2500    1.2990    0.0000 C   0  0  0  0  0  0  0  0  0  0  0  0
   -7.5000    0.0000    0.0000 C   0  0  0  0  0  0  0  0  0  0  0  0
   -6.0000    0.0000    0.0000 C   0  0  0  0  0  0  0  0  0  0  0  0
   -0.7500    1.2990    0.0000 C   0  0  0  0  0  0  0  0  0  0  0  0
   -1.5000    2.5981    0.0000 O   0  0  0  0  0  0  0  0  0  0  0  0
    0.7500    1.2990    0.0000 N   0  0  0  0  0  0  0  0  0  0  0  0
  1  2  1  0
  2  3  1  0
  3  4  2  0
  4  5  1  0
  5  6  2  0
  6  7  1  0
  7  8  1  0
  8  9  2  0
  8 10  1  0
 10 11  1  0
 11 12  1  0
 12 13  1  0
 13 14  1  0
 14 15  1  0
  6 16  1  0
 16 17  2  0
 16 18  1  0
 18  3  1  0
 15 10  1  0
M  END
>  <Title>  (789) 
idABEIgen7

$$$$

     RDKit          2D

 28 32  0  0  0  0  0  0  0  0999 V2000
   -1.2266    3.6245    0.0000 C   0  0  0  0  0  0  0  0  0  0  0  0
    0.1437    3.0144    0.0000 C   0  0  0  0  0  0  0  0  0  0  0  0
    0.4556    1.5472    0.0000 C   0  0  0  0  0  0  0  0  0  0  0  0
    1.9474    1.3904    0.0000 C   0  0  0  0  0  0  0  0  0  0  0  0
    2.5575    2.7607    0.0000 C   0  0  0  0  0  0  0  0  0  0  0  0
    4.0247    3.0725    0.0000 C   0  0  0  0  0  0  0  0  0  0  0  0
    4.6348    4.4429    0.0000 N   0  0  0  0  0  0  0  0  0  0  0  0
    6.1266    4.2861    0.0000 N   0  0  0  0  0  0  0  0  0  0  0  0
    6.4385    2.8189    0.0000 N   0  0  0  0  0  0  0  0  0  0  0  0
    5.1394    2.0689    0.0000 N   0  0  0  0  0  0  0  0  0  0  0  0
    4.9826    0.5771    0.0000 C   0  0  0  0  0  0  0  0  0  0  0  0
    6.0974   -0.4266    0.0000 C   0  0  0  0  0  0  0  0  0  0  0  0
    5.4873   -1.7969    0.0000 C   0  0  0  0  0  0  0  0  0  0  0  0
    3.9955   -1.6402    0.0000 C   0  0  0  0  0  0  0  0  0  0  0  0
    2.9918   -2.7549    0.0000 C   0  0  0  0  0  0  0  0  0  0  0  0
    1.5000   -2.5981    0.0000 N   0  0  0  0  0  0  0  0  0  0  0  0
    0.8899   -3.9684    0.0000 N   0  0  0  0  0  0  0  0  0  0  0  0
    2.0046   -4.9721    0.0000 N   0  0  0  0  0  0  0  0  0  0  0  0
    3.3037   -4.2221    0.0000 N   0  0  0  0  0  0  0  0  0  0  0  0
    4.6740   -4.8322    0.0000 C   0  0  0  0  0  0  0  0  0  0  0  0
    4.8308   -6.3240    0.0000 C   0  0  0  0  0  0  0  0  0  0  0  0
    6.2011   -6.9341    0.0000 C   0  0  0  0  0  0  0  0  0  0  0  0
    7.4146   -6.0524    0.0000 C   0  0  0  0  0  0  0  0  0  0  0  0
    7.2578   -4.5606    0.0000 C   0  0  0  0  0  0  0  0  0  0  0  0
    5.8875   -3.9505    0.0000 C   0  0  0  0  0  0  0  0  0  0  0  0
    3.6836   -0.1729    0.0000 C   0  0  0  0  0  0  0  0  0  0  0  0
    2.3133    0.4372    0.0000 O   0  0  0  0  0  0  0  0  0  0  0  0
    1.4428    3.7644    0.0000 N   0  0  0  0  0  0  0  0  0  0  0  0
  1  2  1  0
  2  3  2  0
  3  4  1  0
  4  5  2  0
  5  6  1  0
  6  7  2  0
  7  8  1  0
  8  9  2  0
  9 10  1  0
 10 11  1  0
 11 12  2  0
 12 13  1  0
 13 14  2  0
 14 15  1  0
 15 16  2  0
 16 17  1  0
 17 18  2  0
 18 19  1  0
 19 20  1  0
 20 21  2  0
 21 22  1  0
 22 23  2  0
 23 24  1  0
 24 25  2  0
 14 26  1  0
 26 27  2  0
  5 28  1  0
 28  2  1  0
 10  6  1  0
 26 11  1  0
 19 15  1  0
 25 20  1  0
M  END
>  <Title>  (790) 
idABEJgen7

$$$$

     RDKit          2D

 13 14  0  0  0  0  0  0  0  0999 V2000
    1.4115    6.1843    0.0000 C   0  0  0  0  0  0  0  0  0  0  0  0
    1.0777    4.7219    0.0000 C   0  0  0  0  0  0  0  0  0  0  0  0
    2.2505    3.7867    0.0000 C   0  0  0  0  0  0  0  0  0  0  0  0
    2.2505    2.2867    0.0000 C   0  0  0  0  0  0  0  0  0  0  0  0
    1.0777    1.3515    0.0000 C   0  0  0  0  0  0  0  0  0  0  0  0
    1.7286    0.0000    0.0000 C   0  0  0  0  0  0  0  0  0  0  0  0
    1.0777   -1.3515    0.0000 C   0  0  0  0  0  0  0  0  0  0  0  0
   -0.3846   -1.6852    0.0000 C   0  0  0  0  0  0  0  0  0  0  0  0
   -1.5574   -0.7500    0.0000 C   0  0  0  0  0  0  0  0  0  0  0  0
   -1.5574    0.7500    0.0000 C   0  0  0  0  0  0  0  0  0  0  0  0
   -0.3846    1.6852    0.0000 C   0  0  0  0  0  0  0  0  0  0  0  0
   -1.0355    3.0367    0.0000 C   0  0  0  0  0  0  0  0  0  0  0  0
   -0.3846    4.3881    0.0000 C   0  0  0  0  0  0  0  0  0  0  0  0
  1  2  1  0
  2  3  2  0
  3  4  1  0
  4  5  2  0
  5  6  1  0
  6  7  2  0
  7  8  1  0
  8  9  2  0
  9 10  1  0
 10 11  2  0
 11 12  1  0
 12 13  1  0
 13  2  1  0
 11  5  1  0
M  END
>  <Title>  (791) 
idABEKgen7

$$$$

     RDKit          2D

 33 37  0  0  0  0  0  0  0  0999 V2000
    3.0000    0.0000    0.0000 C   0  0  0  0  0  0  0  0  0  0  0  0
    1.5000    0.0000    0.0000 C   0  0  0  0  0  0  0  0  0  0  0  0
    0.7500   -1.2990    0.0000 C   0  0  0  0  0  0  0  0  0  0  0  0
   -0.7500   -1.2990    0.0000 C   0  0  0  0  0  0  0  0  0  0  0  0
   -1.5000    0.0000    0.0000 C   0  0  0  0  0  0  0  0  0  0  0  0
   -3.0000    0.0000    0.0000 C   0  0  0  0  0  0  0  0  0  0  0  0
   -3.7500   -1.2990    0.0000 O   0  0  0  0  0  0  0  0  0  0  0  0
   -3.7500    1.2990    0.0000 N   0  0  0  0  0  0  0  0  0  0  0  0
   -5.2500    1.2990    0.0000 C   0  0  0  0  0  0  0  0  0  0  0  0
   -6.1317    0.0855    0.0000 N   0  0  0  0  0  0  0  0  0  0  0  0
   -7.5583    0.5490    0.0000 N   0  0  0  0  0  0  0  0  0  0  0  0
   -7.5583    2.0490    0.0000 N   0  0  0  0  0  0  0  0  0  0  0  0
   -6.1317    2.5126    0.0000 N   0  0  0  0  0  0  0  0  0  0  0  0
   -5.6682    3.9391    0.0000 C   0  0  0  0  0  0  0  0  0  0  0  0
   -4.2009    4.2510    0.0000 C   0  0  0  0  0  0  0  0  0  0  0  0
   -3.7374    5.6776    0.0000 C   0  0  0  0  0  0  0  0  0  0  0  0
   -4.7411    6.7923    0.0000 C   0  0  0  0  0  0  0  0  0  0  0  0
   -4.2776    8.2189    0.0000 C   0  0  0  0  0  0  0  0  0  0  0  0
   -2.8104    8.5308    0.0000 C   0  0  0  0  0  0  0  0  0  0  0  0
   -2.3468    9.9574    0.0000 C   0  0  0  0  0  0  0  0  0  0  0  0
   -3.3505   11.0721    0.0000 C   0  0  0  0  0  0  0  0  0  0  0  0
   -4.8177   10.7602    0.0000 C   0  0  0  0  0  0  0  0  0  0  0  0
   -5.2813    9.3336    0.0000 C   0  0  0  0  0  0  0  0  0  0  0  0
   -6.2083    6.4805    0.0000 C   0  0  0  0  0  0  0  0  0  0  0  0
   -6.6718    5.0539    0.0000 C   0  0  0  0  0  0  0  0  0  0  0  0
   -8.1391    4.7420    0.0000 C   0  0  0  0  0  0  0  0  0  0  0  0
   -9.1428    5.8567    0.0000 C   0  0  0  0  0  0  0  0  0  0  0  0
  -10.6100    5.5448    0.0000 C   0  0  0  0  0  0  0  0  0  0  0  0
  -11.0735    4.1183    0.0000 C   0  0  0  0  0  0  0  0  0  0  0  0
  -10.0698    3.0035    0.0000 C   0  0  0  0  0  0  0  0  0  0  0  0
   -8.6026    3.3154    0.0000 C   0  0  0  0  0  0  0  0  0  0  0  0
   -0.7500    1.2990    0.0000 C   0  0  0  0  0  0  0  0  0  0  0  0
    0.7500    1.2990    0.0000 C   0  0  0  0  0  0  0  0  0  0  0  0
  1  2  1  0
  2  3  2  0
  3  4  1  0
  4  5  2  0
  5  6  1  0
  6  7  2  0
  6  8  1  0
  8  9  1  0
  9 10  2  0
 10 11  1  0
 11 12  2  0
 12 13  1  0
 13 14  1  0
 14 15  2  0
 15 16  1  0
 16 17  2  0
 17 18  1  0
 18 19  2  0
 19 20  1  0
 20 21  2  0
 21 22  1  0
 22 23  2  0
 17 24  1  0
 24 25  2  0
 25 26  1  0
 26 27  2  0
 27 28  1  0
 28 29  2  0
 29 30  1  0
 30 31  2  0
  5 32  1  0
 32 33  2  0
 33  2  1  0
 13  9  1  0
 25 14  1  0
 31 26  1  0
 23 18  1  0
M  END
>  <Title>  (792) 
idABELgen7

$$$$

     RDKit          2D

 47 53  0  0  0  0  0  0  0  0999 V2000
    3.0000    0.0000    0.0000 C   0  0  0  0  0  0  0  0  0  0  0  0
    1.5000    0.0000    0.0000 C   0  0  0  0  0  0  0  0  0  0  0  0
    0.7500    1.2990    0.0000 C   0  0  0  0  0  0  0  0  0  0  0  0
   -0.7500    1.2990    0.0000 C   0  0  0  0  0  0  0  0  0  0  0  0
   -1.5000    0.0000    0.0000 C   0  0  0  0  0  0  0  0  0  0  0  0
   -3.0000    0.0000    0.0000 C   0  0  0  0  0  0  0  0  0  0  0  0
   -3.8817   -1.2135    0.0000 N   0  0  0  0  0  0  0  0  0  0  0  0
   -5.3083   -0.7500    0.0000 N   0  0  0  0  0  0  0  0  0  0  0  0
   -5.3083    0.7500    0.0000 N   0  0  0  0  0  0  0  0  0  0  0  0
   -3.8817    1.2135    0.0000 N   0  0  0  0  0  0  0  0  0  0  0  0
   -3.4182    2.6401    0.0000 C   0  0  0  0  0  0  0  0  0  0  0  0
   -1.9509    2.9520    0.0000 C   0  0  0  0  0  0  0  0  0  0  0  0
   -1.4874    4.3786    0.0000 C   0  0  0  0  0  0  0  0  0  0  0  0
   -2.4911    5.4933    0.0000 C   0  0  0  0  0  0  0  0  0  0  0  0
   -2.0276    6.9199    0.0000 C   0  0  0  0  0  0  0  0  0  0  0  0
   -2.9093    8.1334    0.0000 N   0  0  0  0  0  0  0  0  0  0  0  0
   -2.0276    9.3469    0.0000 N   0  0  0  0  0  0  0  0  0  0  0  0
   -0.6010    8.8834    0.0000 N   0  0  0  0  0  0  0  0  0  0  0  0
   -0.6010    7.3834    0.0000 N   0  0  0  0  0  0  0  0  0  0  0  0
    0.6125    6.5017    0.0000 C   0  0  0  0  0  0  0  0  0  0  0  0
    0.4557    5.0099    0.0000 C   0  0  0  0  0  0  0  0  0  0  0  0
    1.6693    4.1283    0.0000 C   0  0  0  0  0  0  0  0  0  0  0  0
    3.0396    4.7384    0.0000 C   0  0  0  0  0  0  0  0  0  0  0  0
    4.2531    3.8567    0.0000 C   0  0  0  0  0  0  0  0  0  0  0  0
    4.0963    2.3649    0.0000 C   0  0  0  0  0  0  0  0  0  0  0  0
    5.3098    1.4832    0.0000 C   0  0  0  0  0  0  0  0  0  0  0  0
    6.6802    2.0933    0.0000 C   0  0  0  0  0  0  0  0  0  0  0  0
    6.8370    3.5851    0.0000 C   0  0  0  0  0  0  0  0  0  0  0  0
    5.6234    4.4668    0.0000 C   0  0  0  0  0  0  0  0  0  0  0  0
    3.1964    6.2301    0.0000 C   0  0  0  0  0  0  0  0  0  0  0  0
    1.9829    7.1118    0.0000 C   0  0  0  0  0  0  0  0  0  0  0  0
    2.1396    8.6036    0.0000 C   0  0  0  0  0  0  0  0  0  0  0  0
    3.5100    9.2137    0.0000 C   0  0  0  0  0  0  0  0  0  0  0  0
    3.6668   10.7055    0.0000 C   0  0  0  0  0  0  0  0  0  0  0  0
    2.4532   11.5872    0.0000 C   0  0  0  0  0  0  0  0  0  0  0  0
    2.6100   13.0789    0.0000 C   0  0  0  0  0  0  0  0  0  0  0  0
    1.3965   13.9606    0.0000 O   0  0  0  0  0  0  0  0  0  0  0  0
    3.9803   13.6891    0.0000 N   0  0  0  0  0  0  0  0  0  0  0  0
    4.1371   15.1808    0.0000 O   0  0  0  0  0  0  0  0  0  0  0  0
    1.0829   10.9771    0.0000 C   0  0  0  0  0  0  0  0  0  0  0  0
   -0.1306   11.8587    0.0000 O   0  0  0  0  0  0  0  0  0  0  0  0
    0.9261    9.4853    0.0000 N   0  0  0  0  0  0  0  0  0  0  0  0
   -3.9583    5.1814    0.0000 C   0  0  0  0  0  0  0  0  0  0  0  0
   -4.4218    3.7548    0.0000 C   0  0  0  0  0  0  0  0  0  0  0  0
   -0.7500   -1.2990    0.0000 C   0  0  0  0  0  0  0  0  0  0  0  0
   -1.5000   -2.5981    0.0000 O   0  0  0  0  0  0  0  0  0  0  0  0
    0.7500   -1.2990    0.0000 N   0  0  0  0  0  0  0  0  0  0  0  0
  1  2  1  0
  2  3  2  0
  3  4  1  0
  4  5  2  0
  5  6  1  0
  6  7  2  0
  7  8  1  0
  8  9  2  0
  9 10  1  0
 10 11  1  0
 11 12  2  0
 12 13  1  0
 13 14  2  0
 14 15  1  0
 15 16  2  0
 16 17  1  0
 17 18  2  0
 18 19  1  0
 19 20  1  0
 20 21  2  0
 21 22  1  0
 22 23  2  0
 23 24  1  0
 24 25  2  0
 25 26  1  0
 26 27  2  0
 27 28  1  0
 28 29  2  0
 23 30  1  0
 30 31  2  0
 31 32  1  0
 32 33  2  0
 33 34  1  0
 34 35  2  0
 35 36  1  0
 36 37  2  0
 36 38  1  0
 38 39  1  0
 35 40  1  0
 40 41  2  0
 40 42  1  0
 14 43  1  0
 43 44  2  0
  5 45  1  0
 45 46  2  0
 45 47  1  0
 47  2  1  0
 10  6  1  0
 44 11  1  0
 19 15  1  0
 31 20  1  0
 42 32  1  0
 29 24  1  0
M  END
>  <Title>  (793) 
idABEMgen7

$$$$

     RDKit          2D

 25 28  0  0  0  0  0  0  0  0999 V2000
    3.0000    0.0000    0.0000 C   0  0  0  0  0  0  0  0  0  0  0  0
    1.5000    0.0000    0.0000 C   0  0  0  0  0  0  0  0  0  0  0  0
    0.7500    1.2990    0.0000 C   0  0  0  0  0  0  0  0  0  0  0  0
   -0.7500    1.2990    0.0000 C   0  0  0  0  0  0  0  0  0  0  0  0
   -1.5000    0.0000    0.0000 C   0  0  0  0  0  0  0  0  0  0  0  0
   -3.0000    0.0000    0.0000 C   0  0  0  0  0  0  0  0  0  0  0  0
   -3.8817   -1.2135    0.0000 C   0  0  0  0  0  0  0  0  0  0  0  0
   -5.3083   -0.7500    0.0000 N   0  0  0  0  0  0  0  0  0  0  0  0
   -5.3083    0.7500    0.0000 C   0  0  0  0  0  0  0  0  0  0  0  0
   -3.8817    1.2135    0.0000 N   0  0  0  0  0  0  0  0  0  0  0  0
   -3.4182    2.6401    0.0000 C   0  0  0  0  0  0  0  0  0  0  0  0
   -1.9509    2.9520    0.0000 C   0  0  0  0  0  0  0  0  0  0  0  0
   -1.4874    4.3786    0.0000 C   0  0  0  0  0  0  0  0  0  0  0  0
   -2.4911    5.4933    0.0000 C   0  0  0  0  0  0  0  0  0  0  0  0
   -2.0276    6.9199    0.0000 C   0  0  0  0  0  0  0  0  0  0  0  0
   -0.5604    7.2317    0.0000 C   0  0  0  0  0  0  0  0  0  0  0  0
   -0.0968    8.6583    0.0000 C   0  0  0  0  0  0  0  0  0  0  0  0
   -1.1005    9.7730    0.0000 C   0  0  0  0  0  0  0  0  0  0  0  0
   -2.5677    9.4612    0.0000 N   0  0  0  0  0  0  0  0  0  0  0  0
   -3.0313    8.0346    0.0000 C   0  0  0  0  0  0  0  0  0  0  0  0
   -3.9583    5.1814    0.0000 C   0  0  0  0  0  0  0  0  0  0  0  0
   -4.4218    3.7548    0.0000 C   0  0  0  0  0  0  0  0  0  0  0  0
   -0.7500   -1.2990    0.0000 C   0  0  0  0  0  0  0  0  0  0  0  0
   -1.5000   -2.5981    0.0000 O   0  0  0  0  0  0  0  0  0  0  0  0
    0.7500   -1.2990    0.0000 N   0  0  0  0  0  0  0  0  0  0  0  0
  1  2  1  0
  2  3  2  0
  3  4  1  0
  4  5  2  0
  5  6  1  0
  6  7  2  0
  7  8  1  0
  8  9  2  0
  9 10  1  0
 10 11  1  0
 11 12  2  0
 12 13  1  0
 13 14  2  0
 14 15  1  0
 15 16  2  0
 16 17  1  0
 17 18  2  0
 18 19  1  0
 19 20  2  0
 14 21  1  0
 21 22  2  0
  5 23  1  0
 23 24  2  0
 23 25  1  0
 25  2  1  0
 10  6  1  0
 22 11  1  0
 20 15  1  0
M  END
>  <Title>  (794) 
idABENgen7

$$$$

     RDKit          2D

 33 37  0  0  0  0  0  0  0  0999 V2000
  -17.3098   -2.7909    0.0000 C   0  0  0  0  0  0  0  0  0  0  0  0
  -16.6056   -4.1153    0.0000 O   0  0  0  0  0  0  0  0  0  0  0  0
  -15.1065   -4.1677    0.0000 C   0  0  0  0  0  0  0  0  0  0  0  0
  -14.3116   -2.8956    0.0000 C   0  0  0  0  0  0  0  0  0  0  0  0
  -12.8125   -2.9480    0.0000 C   0  0  0  0  0  0  0  0  0  0  0  0
  -12.1083   -4.2724    0.0000 C   0  0  0  0  0  0  0  0  0  0  0  0
  -10.6092   -4.3247    0.0000 C   0  0  0  0  0  0  0  0  0  0  0  0
   -9.9050   -5.6491    0.0000 C   0  0  0  0  0  0  0  0  0  0  0  0
   -8.4059   -5.7015    0.0000 C   0  0  0  0  0  0  0  0  0  0  0  0
   -7.6110   -4.4294    0.0000 C   0  0  0  0  0  0  0  0  0  0  0  0
   -6.1120   -4.4818    0.0000 N   0  0  0  0  0  0  0  0  0  0  0  0
   -5.3171   -3.2097    0.0000 C   0  0  0  0  0  0  0  0  0  0  0  0
   -3.8499   -3.5216    0.0000 C   0  0  0  0  0  0  0  0  0  0  0  0
   -2.5254   -2.8174    0.0000 C   0  0  0  0  0  0  0  0  0  0  0  0
   -1.9635   -1.4266    0.0000 C   0  0  0  0  0  0  0  0  0  0  0  0
   -0.7500   -2.3083    0.0000 C   0  0  0  0  0  0  0  0  0  0  0  0
    0.7500   -2.3083    0.0000 C   0  0  0  0  0  0  0  0  0  0  0  0
    1.9635   -1.4266    0.0000 C   0  0  0  0  0  0  0  0  0  0  0  0
    2.4271    0.0000    0.0000 C   0  0  0  0  0  0  0  0  0  0  0  0
    1.9635    1.4266    0.0000 C   0  0  0  0  0  0  0  0  0  0  0  0
    0.7500    2.3083    0.0000 C   0  0  0  0  0  0  0  0  0  0  0  0
   -0.7500    2.3083    0.0000 C   0  0  0  0  0  0  0  0  0  0  0  0
   -1.9635    1.4266    0.0000 C   0  0  0  0  0  0  0  0  0  0  0  0
   -2.4271    0.0000    0.0000 C   0  0  0  0  0  0  0  0  0  0  0  0
   -3.6991    0.7949    0.0000 N   0  0  0  0  0  0  0  0  0  0  0  0
   -5.1845    0.5861    0.0000 N   0  0  0  0  0  0  0  0  0  0  0  0
   -6.1882   -0.5286    0.0000 N   0  0  0  0  0  0  0  0  0  0  0  0
   -6.2406   -2.0277    0.0000 N   0  0  0  0  0  0  0  0  0  0  0  0
   -8.3153   -3.1050    0.0000 C   0  0  0  0  0  0  0  0  0  0  0  0
   -9.8143   -3.0527    0.0000 C   0  0  0  0  0  0  0  0  0  0  0  0
  -12.9032   -5.5444    0.0000 C   0  0  0  0  0  0  0  0  0  0  0  0
  -12.1990   -6.8689    0.0000 O   0  0  0  0  0  0  0  0  0  0  0  0
  -14.4023   -5.4921    0.0000 N   0  0  0  0  0  0  0  0  0  0  0  0
  1  2  1  0
  2  3  1  0
  3  4  2  0
  4  5  1  0
  5  6  2  0
  6  7  1  0
  7  8  2  0
  8  9  1  0
  9 10  2  0
 10 11  1  0
 11 12  1  0
 12 13  2  0
 13 14  1  0
 14 15  2  0
 15 16  1  0
 16 17  2  0
 17 18  1  0
 18 19  2  0
 19 20  1  0
 20 21  2  0
 21 22  1  0
 22 23  2  0
 23 24  1  0
 24 25  2  0
 25 26  1  0
 26 27  2  0
 27 28  1  0
 10 29  1  0
 29 30  2  0
  6 31  1  0
 31 32  2  0
 31 33  1  0
 33  3  1  0
 30  7  1  0
 28 12  1  0
 24 15  1  0
 28 18  1  0
M  END
>  <Title>  (795) 
idABEOgen7

$$$$

     RDKit          2D

 22 24  0  0  0  0  0  0  0  0999 V2000
   10.0355    0.6881    0.0000 C   0  0  0  0  0  0  0  0  0  0  0  0
    8.5683    0.3762    0.0000 C   0  0  0  0  0  0  0  0  0  0  0  0
    7.4536    1.3799    0.0000 C   0  0  0  0  0  0  0  0  0  0  0  0
    6.1545    0.6299    0.0000 C   0  0  0  0  0  0  0  0  0  0  0  0
    6.4664   -0.8373    0.0000 C   0  0  0  0  0  0  0  0  0  0  0  0
    5.4627   -1.9520    0.0000 O   0  0  0  0  0  0  0  0  0  0  0  0
    3.9955   -1.6402    0.0000 C   0  0  0  0  0  0  0  0  0  0  0  0
    3.5320   -0.2136    0.0000 O   0  0  0  0  0  0  0  0  0  0  0  0
    2.9918   -2.7549    0.0000 C   0  0  0  0  0  0  0  0  0  0  0  0
    3.3037   -4.2221    0.0000 N   0  0  0  0  0  0  0  0  0  0  0  0
    2.0046   -4.9721    0.0000 N   0  0  0  0  0  0  0  0  0  0  0  0
    0.8899   -3.9684    0.0000 N   0  0  0  0  0  0  0  0  0  0  0  0
    1.5000   -2.5981    0.0000 N   0  0  0  0  0  0  0  0  0  0  0  0
    0.7500   -1.2990    0.0000 C   0  0  0  0  0  0  0  0  0  0  0  0
    1.5000    0.0000    0.0000 C   0  0  0  0  0  0  0  0  0  0  0  0
    0.7500    1.2990    0.0000 C   0  0  0  0  0  0  0  0  0  0  0  0
   -0.7500    1.2990    0.0000 C   0  0  0  0  0  0  0  0  0  0  0  0
   -1.5000    2.5981    0.0000 C   0  0  0  0  0  0  0  0  0  0  0  0
   -1.5000    0.0000    0.0000 C   0  0  0  0  0  0  0  0  0  0  0  0
   -3.0000    0.0000    0.0000 O   0  0  0  0  0  0  0  0  0  0  0  0
   -0.7500   -1.2990    0.0000 N   0  0  0  0  0  0  0  0  0  0  0  0
    7.9582   -0.9941    0.0000 N   0  0  0  0  0  0  0  0  0  0  0  0
  1  2  1  0
  2  3  2  0
  3  4  1  0
  4  5  2  0
  5  6  1  0
  6  7  1  0
  7  8  2  0
  7  9  1  0
  9 10  2  0
 10 11  1  0
 11 12  2  0
 12 13  1  0
 13 14  1  0
 14 15  2  0
 15 16  1  0
 16 17  2  0
 17 18  1  0
 17 19  1  0
 19 20  2  0
 19 21  1  0
  5 22  1  0
 22  2  1  0
 13  9  1  0
 21 14  1  0
M  END
>  <Title>  (796) 
idABEPgen7

$$$$

     RDKit          2D

 35 39  0  0  0  0  0  0  0  0999 V2000
   -5.4832    5.8327    0.0000 C   0  0  0  0  0  0  0  0  0  0  0  0
   -4.0789    5.3056    0.0000 O   0  0  0  0  0  0  0  0  0  0  0  0
   -2.9202    6.2583    0.0000 C   0  0  0  0  0  0  0  0  0  0  0  0
   -1.4405    6.5040    0.0000 C   0  0  0  0  0  0  0  0  0  0  0  0
   -0.0362    5.9769    0.0000 C   0  0  0  0  0  0  0  0  0  0  0  0
    1.1225    6.9296    0.0000 O   0  0  0  0  0  0  0  0  0  0  0  0
    0.2096    4.4972    0.0000 N   0  0  0  0  0  0  0  0  0  0  0  0
    1.6139    3.9701    0.0000 C   0  0  0  0  0  0  0  0  0  0  0  0
    2.8658    4.7965    0.0000 N   0  0  0  0  0  0  0  0  0  0  0  0
    4.0385    3.8613    0.0000 N   0  0  0  0  0  0  0  0  0  0  0  0
    3.5115    2.4569    0.0000 N   0  0  0  0  0  0  0  0  0  0  0  0
    2.0130    2.5242    0.0000 N   0  0  0  0  0  0  0  0  0  0  0  0
    1.0777    1.3515    0.0000 C   0  0  0  0  0  0  0  0  0  0  0  0
    1.7286    0.0000    0.0000 C   0  0  0  0  0  0  0  0  0  0  0  0
    1.0777   -1.3515    0.0000 C   0  0  0  0  0  0  0  0  0  0  0  0
   -0.3846   -1.6852    0.0000 C   0  0  0  0  0  0  0  0  0  0  0  0
   -1.5574   -0.7500    0.0000 C   0  0  0  0  0  0  0  0  0  0  0  0
   -2.9088   -1.4008    0.0000 C   0  0  0  0  0  0  0  0  0  0  0  0
   -3.0209   -2.8966    0.0000 O   0  0  0  0  0  0  0  0  0  0  0  0
   -4.1482   -0.5558    0.0000 N   0  0  0  0  0  0  0  0  0  0  0  0
   -5.4997   -1.2067    0.0000 C   0  0  0  0  0  0  0  0  0  0  0  0
   -5.7675   -2.6826    0.0000 N   0  0  0  0  0  0  0  0  0  0  0  0
   -7.2539   -2.8839    0.0000 N   0  0  0  0  0  0  0  0  0  0  0  0
   -7.9047   -1.5325    0.0000 N   0  0  0  0  0  0  0  0  0  0  0  0
   -6.8205   -0.4959    0.0000 N   0  0  0  0  0  0  0  0  0  0  0  0
   -7.0219    0.9906    0.0000 C   0  0  0  0  0  0  0  0  0  0  0  0
   -5.8353    1.9081    0.0000 C   0  0  0  0  0  0  0  0  0  0  0  0
   -6.0366    3.3946    0.0000 C   0  0  0  0  0  0  0  0  0  0  0  0
   -7.4246    3.9634    0.0000 C   0  0  0  0  0  0  0  0  0  0  0  0
   -8.6112    3.0458    0.0000 C   0  0  0  0  0  0  0  0  0  0  0  0
   -8.4099    1.5594    0.0000 C   0  0  0  0  0  0  0  0  0  0  0  0
   -1.5574    0.7500    0.0000 C   0  0  0  0  0  0  0  0  0  0  0  0
   -2.9088    1.4008    0.0000 O   0  0  0  0  0  0  0  0  0  0  0  0
   -0.3846    1.6852    0.0000 N   0  0  0  0  0  0  0  0  0  0  0  0
   -2.3932    7.6626    0.0000 N   0  0  0  0  0  0  0  0  0  0  0  0
  1  2  1  0
  2  3  1  0
  3  4  2  0
  4  5  1  0
  5  6  2  0
  5  7  1  0
  7  8  1  0
  8  9  2  0
  9 10  1  0
 10 11  2  0
 11 12  1  0
 12 13  1  0
 13 14  2  0
 14 15  1  0
 15 16  2  0
 16 17  2  0
 17 18  1  0
 18 19  2  0
 18 20  1  0
 20 21  1  0
 21 22  2  0
 22 23  1  0
 23 24  2  0
 24 25  1  0
 25 26  1  0
 26 27  2  0
 27 28  1  0
 28 29  2  0
 29 30  1  0
 30 31  2  0
 17 32  1  0
 32 33  2  0
 32 34  1  0
  4 35  1  0
 35  3  1  0
 12  8  1  0
 34 13  1  0
 25 21  1  0
 31 26  1  0
M  END
>  <Title>  (797) 
idABEQgen7

$$$$

     RDKit          2D

 11 11  0  0  0  0  0  0  0  0999 V2000
    3.9271    0.0000    0.0000 C   0  0  0  0  0  0  0  0  0  0  0  0
    2.4271    0.0000    0.0000 C   0  0  0  0  0  0  0  0  0  0  0  0
    1.9635   -1.4266    0.0000 C   0  0  0  0  0  0  0  0  0  0  0  0
    0.7500   -2.3083    0.0000 C   0  0  0  0  0  0  0  0  0  0  0  0
   -0.7500   -2.3083    0.0000 C   0  0  0  0  0  0  0  0  0  0  0  0
   -1.9635   -1.4266    0.0000 C   0  0  0  0  0  0  0  0  0  0  0  0
   -2.4271    0.0000    0.0000 C   0  0  0  0  0  0  0  0  0  0  0  0
   -1.9635    1.4266    0.0000 C   0  0  0  0  0  0  0  0  0  0  0  0
   -0.7500    2.3083    0.0000 C   0  0  0  0  0  0  0  0  0  0  0  0
    0.7500    2.3083    0.0000 C   0  0  0  0  0  0  0  0  0  0  0  0
    1.9635    1.4266    0.0000 C   0  0  0  0  0  0  0  0  0  0  0  0
  1  2  1  0
  2  3  2  0
  3  4  1  0
  4  5  2  0
  5  6  1  0
  6  7  2  0
  7  8  1  0
  8  9  2  0
  9 10  1  0
 10 11  2  0
 11  2  1  0
M  END
>  <Title>  (798) 
idABERgen7

$$$$

     RDKit          2D

 26 29  0  0  0  0  0  0  0  0999 V2000
    3.0000    0.0000    0.0000 C   0  0  0  0  0  0  0  0  0  0  0  0
    1.5000    0.0000    0.0000 C   0  0  0  0  0  0  0  0  0  0  0  0
    0.7500    1.2990    0.0000 C   0  0  0  0  0  0  0  0  0  0  0  0
   -0.7500    1.2990    0.0000 C   0  0  0  0  0  0  0  0  0  0  0  0
   -1.5000    0.0000    0.0000 C   0  0  0  0  0  0  0  0  0  0  0  0
   -3.0000    0.0000    0.0000 C   0  0  0  0  0  0  0  0  0  0  0  0
   -3.8817   -1.2135    0.0000 N   0  0  0  0  0  0  0  0  0  0  0  0
   -5.3083   -0.7500    0.0000 N   0  0  0  0  0  0  0  0  0  0  0  0
   -5.3083    0.7500    0.0000 N   0  0  0  0  0  0  0  0  0  0  0  0
   -3.8817    1.2135    0.0000 N   0  0  0  0  0  0  0  0  0  0  0  0
   -3.4182    2.6401    0.0000 C   0  0  0  0  0  0  0  0  0  0  0  0
   -1.9509    2.9520    0.0000 C   0  0  0  0  0  0  0  0  0  0  0  0
   -1.4874    4.3786    0.0000 C   0  0  0  0  0  0  0  0  0  0  0  0
   -2.4911    5.4933    0.0000 C   0  0  0  0  0  0  0  0  0  0  0  0
   -2.0276    6.9199    0.0000 C   0  0  0  0  0  0  0  0  0  0  0  0
   -0.5604    7.2317    0.0000 C   0  0  0  0  0  0  0  0  0  0  0  0
    0.4433    6.1170    0.0000 C   0  0  0  0  0  0  0  0  0  0  0  0
    1.9106    6.4289    0.0000 C   0  0  0  0  0  0  0  0  0  0  0  0
    2.3741    7.8555    0.0000 C   0  0  0  0  0  0  0  0  0  0  0  0
    1.3704    8.9702    0.0000 C   0  0  0  0  0  0  0  0  0  0  0  0
   -0.0968    8.6583    0.0000 C   0  0  0  0  0  0  0  0  0  0  0  0
   -3.9583    5.1814    0.0000 C   0  0  0  0  0  0  0  0  0  0  0  0
   -4.4218    3.7548    0.0000 C   0  0  0  0  0  0  0  0  0  0  0  0
   -0.7500   -1.2990    0.0000 C   0  0  0  0  0  0  0  0  0  0  0  0
   -1.5000   -2.5981    0.0000 O   0  0  0  0  0  0  0  0  0  0  0  0
    0.7500   -1.2990    0.0000 N   0  0  0  0  0  0  0  0  0  0  0  0
  1  2  1  0
  2  3  2  0
  3  4  1  0
  4  5  2  0
  5  6  1  0
  6  7  2  0
  7  8  1  0
  8  9  2  0
  9 10  1  0
 10 11  1  0
 11 12  2  0
 12 13  1  0
 13 14  2  0
 14 15  1  0
 15 16  1  0
 16 17  2  0
 17 18  1  0
 18 19  2  0
 19 20  1  0
 20 21  2  0
 14 22  1  0
 22 23  2  0
  5 24  1  0
 24 25  2  0
 24 26  1  0
 26  2  1  0
 10  6  1  0
 23 11  1  0
 21 16  1  0
M  END
>  <Title>  (799) 
idABESgen7

$$$$

     RDKit          2D

 10 10  0  0  0  0  0  0  0  0999 V2000
    4.2098   -1.2990    0.0000 C   0  0  0  0  0  0  0  0  0  0  0  0
    3.4598   -0.0000    0.0000 O   0  0  0  0  0  0  0  0  0  0  0  0
    1.9598    0.0000    0.0000 C   0  0  0  0  0  0  0  0  0  0  0  0
    1.3858   -1.3858    0.0000 C   0  0  0  0  0  0  0  0  0  0  0  0
   -0.0000   -1.9598    0.0000 C   0  0  0  0  0  0  0  0  0  0  0  0
   -1.3858   -1.3858    0.0000 C   0  0  0  0  0  0  0  0  0  0  0  0
   -1.9598    0.0000    0.0000 C   0  0  0  0  0  0  0  0  0  0  0  0
   -1.3858    1.3858    0.0000 C   0  0  0  0  0  0  0  0  0  0  0  0
    0.0000    1.9598    0.0000 C   0  0  0  0  0  0  0  0  0  0  0  0
    1.3858    1.3858    0.0000 C   0  0  0  0  0  0  0  0  0  0  0  0
  1  2  1  0
  2  3  1  0
  3  4  1  0
  4  5  1  0
  5  6  1  0
  6  7  1  0
  7  8  1  0
  8  9  1  0
  9 10  1  0
 10  3  1  0
M  END
>  <Title>  (800) 
idABETgen7

$$$$

     RDKit          2D

 21 21  0  0  0  0  0  0  0  0999 V2000
    6.2943    0.0000    0.0000 C   0  0  0  0  0  0  0  0  0  0  0  0
    4.7943    0.0000    0.0000 C   0  0  0  0  0  0  0  0  0  0  0  0
    4.5597   -1.4815    0.0000 C   0  0  0  0  0  0  0  0  0  0  0  0
    3.8787   -2.8180    0.0000 C   0  0  0  0  0  0  0  0  0  0  0  0
    2.8180   -3.8787    0.0000 C   0  0  0  0  0  0  0  0  0  0  0  0
    1.4815   -4.5597    0.0000 C   0  0  0  0  0  0  0  0  0  0  0  0
   -0.0000   -4.7943    0.0000 C   0  0  0  0  0  0  0  0  0  0  0  0
   -1.4815   -4.5597    0.0000 C   0  0  0  0  0  0  0  0  0  0  0  0
   -2.8180   -3.8787    0.0000 C   0  0  0  0  0  0  0  0  0  0  0  0
   -3.8787   -2.8180    0.0000 C   0  0  0  0  0  0  0  0  0  0  0  0
   -4.5597   -1.4815    0.0000 C   0  0  0  0  0  0  0  0  0  0  0  0
   -4.7943    0.0000    0.0000 C   0  0  0  0  0  0  0  0  0  0  0  0
   -4.5597    1.4815    0.0000 C   0  0  0  0  0  0  0  0  0  0  0  0
   -3.8787    2.8180    0.0000 C   0  0  0  0  0  0  0  0  0  0  0  0
   -2.8180    3.8787    0.0000 C   0  0  0  0  0  0  0  0  0  0  0  0
   -1.4815    4.5597    0.0000 C   0  0  0  0  0  0  0  0  0  0  0  0
    0.0000    4.7943    0.0000 C   0  0  0  0  0  0  0  0  0  0  0  0
    1.4815    4.5597    0.0000 C   0  0  0  0  0  0  0  0  0  0  0  0
    2.8180    3.8787    0.0000 C   0  0  0  0  0  0  0  0  0  0  0  0
    3.8787    2.8180    0.0000 C   0  0  0  0  0  0  0  0  0  0  0  0
    4.5597    1.4815    0.0000 C   0  0  0  0  0  0  0  0  0  0  0  0
  1  2  1  0
  2  3  2  0
  3  4  1  0
  4  5  2  0
  5  6  1  0
  6  7  2  0
  7  8  1  0
  8  9  2  0
  9 10  1  0
 10 11  2  0
 11 12  1  0
 12 13  2  0
 13 14  1  0
 14 15  2  0
 15 16  1  0
 16 17  2  0
 17 18  1  0
 18 19  2  0
 19 20  1  0
 20 21  2  0
 21  2  1  0
M  END
>  <Title>  (801) 
idABEUgen7

$$$$

     RDKit          2D

 27 30  0  0  0  0  0  0  0  0999 V2000
    3.0000    0.0000    0.0000 C   0  0  0  0  0  0  0  0  0  0  0  0
    1.5000    0.0000    0.0000 C   0  0  0  0  0  0  0  0  0  0  0  0
    0.7500   -1.2990    0.0000 C   0  0  0  0  0  0  0  0  0  0  0  0
   -0.7500   -1.2990    0.0000 C   0  0  0  0  0  0  0  0  0  0  0  0
   -1.5000    0.0000    0.0000 C   0  0  0  0  0  0  0  0  0  0  0  0
   -3.0000    0.0000    0.0000 C   0  0  0  0  0  0  0  0  0  0  0  0
   -3.7500   -1.2990    0.0000 O   0  0  0  0  0  0  0  0  0  0  0  0
   -3.7500    1.2990    0.0000 N   0  0  0  0  0  0  0  0  0  0  0  0
   -5.2500    1.2990    0.0000 C   0  0  0  0  0  0  0  0  0  0  0  0
   -6.1317    0.0855    0.0000 N   0  0  0  0  0  0  0  0  0  0  0  0
   -7.5583    0.5490    0.0000 N   0  0  0  0  0  0  0  0  0  0  0  0
   -7.5583    2.0490    0.0000 N   0  0  0  0  0  0  0  0  0  0  0  0
   -6.1317    2.5126    0.0000 N   0  0  0  0  0  0  0  0  0  0  0  0
   -5.6682    3.9391    0.0000 C   0  0  0  0  0  0  0  0  0  0  0  0
   -4.2009    4.2510    0.0000 C   0  0  0  0  0  0  0  0  0  0  0  0
   -3.7374    5.6776    0.0000 C   0  0  0  0  0  0  0  0  0  0  0  0
   -4.7411    6.7923    0.0000 C   0  0  0  0  0  0  0  0  0  0  0  0
   -4.2776    8.2189    0.0000 C   0  0  0  0  0  0  0  0  0  0  0  0
   -2.8104    8.5308    0.0000 C   0  0  0  0  0  0  0  0  0  0  0  0
   -2.3468    9.9574    0.0000 C   0  0  0  0  0  0  0  0  0  0  0  0
   -3.3505   11.0721    0.0000 C   0  0  0  0  0  0  0  0  0  0  0  0
   -4.8177   10.7602    0.0000 C   0  0  0  0  0  0  0  0  0  0  0  0
   -5.2813    9.3336    0.0000 C   0  0  0  0  0  0  0  0  0  0  0  0
   -6.2083    6.4805    0.0000 C   0  0  0  0  0  0  0  0  0  0  0  0
   -6.6718    5.0539    0.0000 C   0  0  0  0  0  0  0  0  0  0  0  0
   -0.7500    1.2990    0.0000 C   0  0  0  0  0  0  0  0  0  0  0  0
    0.7500    1.2990    0.0000 N   0  0  0  0  0  0  0  0  0  0  0  0
  1  2  1  0
  2  3  2  0
  3  4  1  0
  4  5  2  0
  5  6  1  0
  6  7  2  0
  6  8  1  0
  8  9  1  0
  9 10  2  0
 10 11  1  0
 11 12  2  0
 12 13  1  0
 13 14  1  0
 14 15  2  0
 15 16  1  0
 16 17  2  0
 17 18  1  0
 18 19  2  0
 19 20  1  0
 20 21  2  0
 21 22  1  0
 22 23  2  0
 17 24  1  0
 24 25  2  0
  5 26  1  0
 26 27  1  0
 27  2  1  0
 13  9  1  0
 25 14  1  0
 23 18  1  0
M  END
>  <Title>  (802) 
idABEVgen7

$$$$

     RDKit          2D

 14 14  0  0  0  0  0  0  0  0999 V2000
    4.9121   -1.2990    0.0000 C   0  0  0  0  0  0  0  0  0  0  0  0
    4.1621    0.0000    0.0000 C   0  0  0  0  0  0  0  0  0  0  0  0
    4.9121    1.2990    0.0000 O   0  0  0  0  0  0  0  0  0  0  0  0
    2.6621    0.0000    0.0000 C   0  0  0  0  0  0  0  0  0  0  0  0
    2.2395    1.4392    0.0000 C   0  0  0  0  0  0  0  0  0  0  0  0
    1.1059    2.4215    0.0000 C   0  0  0  0  0  0  0  0  0  0  0  0
   -0.3789    2.6350    0.0000 C   0  0  0  0  0  0  0  0  0  0  0  0
   -1.7433    2.0119    0.0000 C   0  0  0  0  0  0  0  0  0  0  0  0
   -2.5543    0.7500    0.0000 C   0  0  0  0  0  0  0  0  0  0  0  0
   -2.5543   -0.7500    0.0000 C   0  0  0  0  0  0  0  0  0  0  0  0
   -1.7433   -2.0119    0.0000 C   0  0  0  0  0  0  0  0  0  0  0  0
   -0.3789   -2.6350    0.0000 C   0  0  0  0  0  0  0  0  0  0  0  0
    1.1059   -2.4215    0.0000 C   0  0  0  0  0  0  0  0  0  0  0  0
    2.2395   -1.4392    0.0000 C   0  0  0  0  0  0  0  0  0  0  0  0
  1  2  1  0
  2  3  2  0
  2  4  1  0
  4  5  1  0
  5  6  1  0
  6  7  1  0
  7  8  1  0
  8  9  1  0
  9 10  1  0
 10 11  1  0
 11 12  1  0
 12 13  1  0
 13 14  1  0
 14  4  1  0
M  END
>  <Title>  (803) 
idABEWgen7

$$$$

     RDKit          2D

 14 14  0  0  0  0  0  0  0  0999 V2000
    4.6339    0.0000    0.0000 C   0  0  0  0  0  0  0  0  0  0  0  0
    3.1339    0.0000    0.0000 C   0  0  0  0  0  0  0  0  0  0  0  0
    2.7750    1.4564    0.0000 C   0  0  0  0  0  0  0  0  0  0  0  0
    1.7803    2.5792    0.0000 C   0  0  0  0  0  0  0  0  0  0  0  0
    0.3778    3.1111    0.0000 C   0  0  0  0  0  0  0  0  0  0  0  0
   -1.1113    2.9303    0.0000 C   0  0  0  0  0  0  0  0  0  0  0  0
   -2.3458    2.0782    0.0000 C   0  0  0  0  0  0  0  0  0  0  0  0
   -3.0429    0.7500    0.0000 C   0  0  0  0  0  0  0  0  0  0  0  0
   -3.0429   -0.7500    0.0000 C   0  0  0  0  0  0  0  0  0  0  0  0
   -2.3458   -2.0782    0.0000 C   0  0  0  0  0  0  0  0  0  0  0  0
   -1.1113   -2.9303    0.0000 C   0  0  0  0  0  0  0  0  0  0  0  0
    0.3778   -3.1111    0.0000 C   0  0  0  0  0  0  0  0  0  0  0  0
    1.7803   -2.5792    0.0000 C   0  0  0  0  0  0  0  0  0  0  0  0
    2.7750   -1.4564    0.0000 C   0  0  0  0  0  0  0  0  0  0  0  0
  1  2  2  0
  2  3  1  0
  3  4  1  0
  4  5  1  0
  5  6  1  0
  6  7  1  0
  7  8  1  0
  8  9  1  0
  9 10  1  0
 10 11  1  0
 11 12  1  0
 12 13  1  0
 13 14  1  0
 14  2  1  0
M  END
>  <Title>  (804) 
idABEXgen7

$$$$

     RDKit          2D

 36 40  0  0  0  0  0  0  0  0999 V2000
    3.0000    0.0000    0.0000 C   0  0  0  0  0  0  0  0  0  0  0  0
    1.5000    0.0000    0.0000 C   0  0  0  0  0  0  0  0  0  0  0  0
    0.7500   -1.2990    0.0000 C   0  0  0  0  0  0  0  0  0  0  0  0
   -0.7500   -1.2990    0.0000 C   0  0  0  0  0  0  0  0  0  0  0  0
   -1.5000    0.0000    0.0000 C   0  0  0  0  0  0  0  0  0  0  0  0
   -3.0000    0.0000    0.0000 C   0  0  0  0  0  0  0  0  0  0  0  0
   -3.7500   -1.2990    0.0000 O   0  0  0  0  0  0  0  0  0  0  0  0
   -3.7500    1.2990    0.0000 N   0  0  0  0  0  0  0  0  0  0  0  0
   -5.2500    1.2990    0.0000 C   0  0  0  0  0  0  0  0  0  0  0  0
   -6.1317    0.0855    0.0000 N   0  0  0  0  0  0  0  0  0  0  0  0
   -7.5583    0.5490    0.0000 N   0  0  0  0  0  0  0  0  0  0  0  0
   -7.5583    2.0490    0.0000 N   0  0  0  0  0  0  0  0  0  0  0  0
   -6.1317    2.5126    0.0000 N   0  0  0  0  0  0  0  0  0  0  0  0
   -5.6682    3.9391    0.0000 C   0  0  0  0  0  0  0  0  0  0  0  0
   -4.2009    4.2510    0.0000 C   0  0  0  0  0  0  0  0  0  0  0  0
   -3.7374    5.6776    0.0000 C   0  0  0  0  0  0  0  0  0  0  0  0
   -4.7411    6.7923    0.0000 C   0  0  0  0  0  0  0  0  0  0  0  0
   -4.2776    8.2189    0.0000 C   0  0  0  0  0  0  0  0  0  0  0  0
   -2.8104    8.5308    0.0000 C   0  0  0  0  0  0  0  0  0  0  0  0
   -2.3468    9.9574    0.0000 C   0  0  0  0  0  0  0  0  0  0  0  0
   -3.3505   11.0721    0.0000 C   0  0  0  0  0  0  0  0  0  0  0  0
   -4.8177   10.7602    0.0000 C   0  0  0  0  0  0  0  0  0  0  0  0
   -5.2813    9.3336    0.0000 C   0  0  0  0  0  0  0  0  0  0  0  0
   -6.2083    6.4805    0.0000 C   0  0  0  0  0  0  0  0  0  0  0  0
   -6.6718    5.0539    0.0000 C   0  0  0  0  0  0  0  0  0  0  0  0
   -8.1391    4.7420    0.0000 C   0  0  0  0  0  0  0  0  0  0  0  0
   -9.1428    5.8567    0.0000 C   0  0  0  0  0  0  0  0  0  0  0  0
  -10.6100    5.5448    0.0000 C   0  0  0  0  0  0  0  0  0  0  0  0
  -11.0735    4.1183    0.0000 C   0  0  0  0  0  0  0  0  0  0  0  0
  -12.5407    3.8064    0.0000 C   0  0  0  0  0  0  0  0  0  0  0  0
  -10.0698    3.0035    0.0000 C   0  0  0  0  0  0  0  0  0  0  0  0
  -10.5333    1.5770    0.0000 O   0  0  0  0  0  0  0  0  0  0  0  0
   -8.6026    3.3154    0.0000 N   0  0  0  0  0  0  0  0  0  0  0  0
   -0.7500    1.2990    0.0000 C   0  0  0  0  0  0  0  0  0  0  0  0
   -1.5000    2.5981    0.0000 O   0  0  0  0  0  0  0  0  0  0  0  0
    0.7500    1.2990    0.0000 N   0  0  0  0  0  0  0  0  0  0  0  0
  1  2  1  0
  2  3  2  0
  3  4  1  0
  4  5  2  0
  5  6  1  0
  6  7  2  0
  6  8  1  0
  8  9  1  0
  9 10  2  0
 10 11  1  0
 11 12  2  0
 12 13  1  0
 13 14  1  0
 14 15  2  0
 15 16  1  0
 16 17  2  0
 17 18  1  0
 18 19  2  0
 19 20  1  0
 20 21  2  0
 21 22  1  0
 22 23  2  0
 17 24  1  0
 24 25  2  0
 25 26  1  0
 26 27  2  0
 27 28  1  0
 28 29  2  0
 29 30  1  0
 29 31  1  0
 31 32  2  0
 31 33  1  0
  5 34  1  0
 34 35  2  0
 34 36  1  0
 36  2  1  0
 13  9  1  0
 25 14  1  0
 33 26  1  0
 23 18  1  0
M  END
>  <Title>  (805) 
idABEYgen7

$$$$

     RDKit          2D

 13 14  0  0  0  0  0  0  0  0999 V2000
    3.0000    0.0000    0.0000 O   0  0  0  0  0  0  0  0  0  0  0  0
    1.5000    0.0000    0.0000 C   0  0  0  0  0  0  0  0  0  0  0  0
    0.7500   -1.2990    0.0000 C   0  0  0  0  0  0  0  0  0  0  0  0
   -0.7500   -1.2990    0.0000 C   0  0  0  0  0  0  0  0  0  0  0  0
   -1.5000    0.0000    0.0000 C   0  0  0  0  0  0  0  0  0  0  0  0
   -3.0000    0.0000    0.0000 C   0  0  0  0  0  0  0  0  0  0  0  0
   -3.7500    1.2990    0.0000 C   0  0  0  0  0  0  0  0  0  0  0  0
   -5.2500    1.2990    0.0000 C   0  0  0  0  0  0  0  0  0  0  0  0
   -6.0000    0.0000    0.0000 C   0  0  0  0  0  0  0  0  0  0  0  0
   -5.2500   -1.2990    0.0000 C   0  0  0  0  0  0  0  0  0  0  0  0
   -3.7500   -1.2990    0.0000 C   0  0  0  0  0  0  0  0  0  0  0  0
   -0.7500    1.2990    0.0000 C   0  0  0  0  0  0  0  0  0  0  0  0
    0.7500    1.2990    0.0000 C   0  0  0  0  0  0  0  0  0  0  0  0
  1  2  1  0
  2  3  2  0
  3  4  1  0
  4  5  2  0
  5  6  1  0
  6  7  2  0
  7  8  1  0
  8  9  2  0
  9 10  1  0
 10 11  2  0
  5 12  1  0
 12 13  2  0
 13  2  1  0
 11  6  1  0
M  END
>  <Title>  (806) 
idABEZgen7

$$$$

     RDKit          2D

 30 33  0  0  0  0  0  0  0  0999 V2000
    3.7500   -1.2990    0.0000 C   0  0  0  0  0  0  0  0  0  0  0  0
    3.0000    0.0000    0.0000 O   0  0  0  0  0  0  0  0  0  0  0  0
    1.5000    0.0000    0.0000 C   0  0  0  0  0  0  0  0  0  0  0  0
    0.7500   -1.2990    0.0000 C   0  0  0  0  0  0  0  0  0  0  0  0
   -0.7500   -1.2990    0.0000 C   0  0  0  0  0  0  0  0  0  0  0  0
   -1.5000    0.0000    0.0000 C   0  0  0  0  0  0  0  0  0  0  0  0
   -3.0000    0.0000    0.0000 N   0  0  0  0  0  0  0  0  0  0  0  0
   -3.7500    1.2990    0.0000 C   0  0  0  0  0  0  0  0  0  0  0  0
   -3.0000    2.5981    0.0000 O   0  0  0  0  0  0  0  0  0  0  0  0
   -5.2500    1.2990    0.0000 N   0  0  0  0  0  0  0  0  0  0  0  0
   -6.0000    2.5981    0.0000 N   0  0  0  0  0  0  0  0  0  0  0  0
   -7.5000    2.5981    0.0000 N   0  0  0  0  0  0  0  0  0  0  0  0
   -8.2500    1.2990    0.0000 N   0  0  0  0  0  0  0  0  0  0  0  0
   -7.5000    0.0000    0.0000 N   0  0  0  0  0  0  0  0  0  0  0  0
   -6.0000    0.0000    0.0000 N   0  0  0  0  0  0  0  0  0  0  0  0
   -5.2500   -1.2990    0.0000 C   0  0  0  0  0  0  0  0  0  0  0  0
   -3.7582   -1.4558    0.0000 C   0  0  0  0  0  0  0  0  0  0  0  0
   -3.4463   -2.9231    0.0000 C   0  0  0  0  0  0  0  0  0  0  0  0
   -4.7454   -3.6731    0.0000 C   0  0  0  0  0  0  0  0  0  0  0  0
   -4.9022   -5.1648    0.0000 C   0  0  0  0  0  0  0  0  0  0  0  0
   -6.2725   -5.7749    0.0000 C   0  0  0  0  0  0  0  0  0  0  0  0
   -6.4293   -7.2667    0.0000 C   0  0  0  0  0  0  0  0  0  0  0  0
   -5.2158   -8.1484    0.0000 C   0  0  0  0  0  0  0  0  0  0  0  0
   -3.8454   -7.5383    0.0000 C   0  0  0  0  0  0  0  0  0  0  0  0
   -3.6887   -6.0465    0.0000 C   0  0  0  0  0  0  0  0  0  0  0  0
   -5.8601   -2.6694    0.0000 C   0  0  0  0  0  0  0  0  0  0  0  0
   -7.3273   -2.9812    0.0000 O   0  0  0  0  0  0  0  0  0  0  0  0
   -0.7500    1.2990    0.0000 C   0  0  0  0  0  0  0  0  0  0  0  0
    0.7500    1.2990    0.0000 C   0  0  0  0  0  0  0  0  0  0  0  0
    1.5000    2.5981    0.0000 C   0  0  0  0  0  0  0  0  0  0  0  0
  1  2  1  0
  2  3  1  0
  3  4  2  0
  4  5  1  0
  5  6  2  0
  6  7  1  0
  7  8  1  0
  8  9  2  0
  8 10  1  0
 10 11  1  0
 11 12  2  0
 12 13  1  0
 13 14  2  0
 14 15  1  0
 15 16  1  0
 16 17  2  0
 17 18  1  0
 18 19  2  0
 19 20  1  0
 20 21  2  0
 21 22  1  0
 22 23  2  0
 23 24  1  0
 24 25  2  0
 19 26  1  0
 26 27  2  0
  6 28  1  0
 28 29  2  0
 29 30  1  0
 29  3  1  0
 15 10  1  0
 26 16  1  0
 25 20  1  0
M  END
>  <Title>  (807) 
idABFAgen7

$$$$

     RDKit          2D

 14 14  0  0  0  0  0  0  0  0999 V2000
    5.1478   -1.2990    0.0000 C   0  0  0  0  0  0  0  0  0  0  0  0
    4.3978    0.0000    0.0000 C   0  0  0  0  0  0  0  0  0  0  0  0
    2.8978    0.0000    0.0000 C   0  0  0  0  0  0  0  0  0  0  0  0
    2.5095   -1.4489    0.0000 C   0  0  0  0  0  0  0  0  0  0  0  0
    1.4489   -2.5095    0.0000 C   0  0  0  0  0  0  0  0  0  0  0  0
   -0.0000   -2.8978    0.0000 C   0  0  0  0  0  0  0  0  0  0  0  0
   -1.4489   -2.5095    0.0000 C   0  0  0  0  0  0  0  0  0  0  0  0
   -2.5095   -1.4489    0.0000 C   0  0  0  0  0  0  0  0  0  0  0  0
   -2.8978    0.0000    0.0000 C   0  0  0  0  0  0  0  0  0  0  0  0
   -2.5095    1.4489    0.0000 C   0  0  0  0  0  0  0  0  0  0  0  0
   -1.4489    2.5095    0.0000 C   0  0  0  0  0  0  0  0  0  0  0  0
    0.0000    2.8978    0.0000 C   0  0  0  0  0  0  0  0  0  0  0  0
    1.4489    2.5095    0.0000 C   0  0  0  0  0  0  0  0  0  0  0  0
    2.5095    1.4489    0.0000 C   0  0  0  0  0  0  0  0  0  0  0  0
  1  2  1  0
  2  3  1  0
  3  4  1  0
  4  5  1  0
  5  6  1  0
  6  7  1  0
  7  8  1  0
  8  9  1  0
  9 10  1  0
 10 11  1  0
 11 12  1  0
 12 13  1  0
 13 14  1  0
 14  3  1  0
M  END
>  <Title>  (808) 
idABFBgen7

$$$$

     RDKit          2D

 33 37  0  0  0  0  0  0  0  0999 V2000
   -6.0000   -5.1962    0.0000 C   0  0  0  0  0  0  0  0  0  0  0  0
   -5.2500   -3.8971    0.0000 C   0  0  0  0  0  0  0  0  0  0  0  0
   -3.7500   -3.8971    0.0000 C   0  0  0  0  0  0  0  0  0  0  0  0
   -3.0000   -2.5981    0.0000 C   0  0  0  0  0  0  0  0  0  0  0  0
   -3.7500   -1.2990    0.0000 C   0  0  0  0  0  0  0  0  0  0  0  0
   -3.0000    0.0000    0.0000 C   0  0  0  0  0  0  0  0  0  0  0  0
   -3.7500    1.2990    0.0000 C   0  0  0  0  0  0  0  0  0  0  0  0
   -5.2418    1.4558    0.0000 N   0  0  0  0  0  0  0  0  0  0  0  0
   -5.5537    2.9231    0.0000 N   0  0  0  0  0  0  0  0  0  0  0  0
   -4.2546    3.6731    0.0000 N   0  0  0  0  0  0  0  0  0  0  0  0
   -3.1399    2.6694    0.0000 N   0  0  0  0  0  0  0  0  0  0  0  0
   -1.6727    2.9812    0.0000 C   0  0  0  0  0  0  0  0  0  0  0  0
   -0.6690    1.8665    0.0000 C   0  0  0  0  0  0  0  0  0  0  0  0
    0.7982    2.1784    0.0000 C   0  0  0  0  0  0  0  0  0  0  0  0
    1.2618    3.6050    0.0000 C   0  0  0  0  0  0  0  0  0  0  0  0
    2.7290    3.9168    0.0000 C   0  0  0  0  0  0  0  0  0  0  0  0
    3.7327    2.8021    0.0000 O   0  0  0  0  0  0  0  0  0  0  0  0
    3.1925    5.3434    0.0000 N   0  0  0  0  0  0  0  0  0  0  0  0
    4.6597    5.6553    0.0000 C   0  0  0  0  0  0  0  0  0  0  0  0
    5.7745    4.6516    0.0000 N   0  0  0  0  0  0  0  0  0  0  0  0
    7.0735    5.4016    0.0000 N   0  0  0  0  0  0  0  0  0  0  0  0
    6.7616    6.8688    0.0000 N   0  0  0  0  0  0  0  0  0  0  0  0
    5.2698    7.0256    0.0000 N   0  0  0  0  0  0  0  0  0  0  0  0
    4.5198    8.3246    0.0000 C   0  0  0  0  0  0  0  0  0  0  0  0
    5.2698    9.6237    0.0000 C   0  0  0  0  0  0  0  0  0  0  0  0
    4.5198   10.9227    0.0000 C   0  0  0  0  0  0  0  0  0  0  0  0
    3.0198   10.9227    0.0000 C   0  0  0  0  0  0  0  0  0  0  0  0
    2.2698    9.6237    0.0000 C   0  0  0  0  0  0  0  0  0  0  0  0
    3.0198    8.3246    0.0000 C   0  0  0  0  0  0  0  0  0  0  0  0
    0.2581    4.7197    0.0000 C   0  0  0  0  0  0  0  0  0  0  0  0
   -1.2091    4.4078    0.0000 C   0  0  0  0  0  0  0  0  0  0  0  0
   -5.2500   -1.2990    0.0000 C   0  0  0  0  0  0  0  0  0  0  0  0
   -6.0000   -2.5981    0.0000 C   0  0  0  0  0  0  0  0  0  0  0  0
  1  2  1  0
  2  3  2  0
  3  4  1  0
  4  5  2  0
  5  6  1  0
  6  7  1  0
  7  8  2  0
  8  9  1  0
  9 10  2  0
 10 11  1  0
 11 12  1  0
 12 13  2  0
 13 14  1  0
 14 15  2  0
 15 16  1  0
 16 17  2  0
 16 18  1  0
 18 19  1  0
 19 20  2  0
 20 21  1  0
 21 22  2  0
 22 23  1  0
 23 24  1  0
 24 25  2  0
 25 26  1  0
 26 27  2  0
 27 28  1  0
 28 29  2  0
 15 30  1  0
 30 31  2  0
  5 32  1  0
 32 33  2  0
 33  2  1  0
 11  7  1  0
 31 12  1  0
 23 19  1  0
 29 24  1  0
M  END
>  <Title>  (809) 
idABFCgen7

$$$$

     RDKit          2D

 14 15  0  0  0  0  0  0  0  0999 V2000
    1.6798    5.9095    0.0000 O   0  0  0  0  0  0  0  0  0  0  0  0
    1.6798    4.4095    0.0000 C   0  0  0  0  0  0  0  0  0  0  0  0
    2.9789    3.6595    0.0000 C   0  0  0  0  0  0  0  0  0  0  0  0
    2.9789    2.1595    0.0000 C   0  0  0  0  0  0  0  0  0  0  0  0
    1.6798    1.4095    0.0000 C   0  0  0  0  0  0  0  0  0  0  0  0
    2.1929    0.0000    0.0000 C   0  0  0  0  0  0  0  0  0  0  0  0
    1.6798   -1.4095    0.0000 C   0  0  0  0  0  0  0  0  0  0  0  0
    0.3808   -2.1595    0.0000 C   0  0  0  0  0  0  0  0  0  0  0  0
   -1.0964   -1.8991    0.0000 C   0  0  0  0  0  0  0  0  0  0  0  0
   -2.0606   -0.7500    0.0000 C   0  0  0  0  0  0  0  0  0  0  0  0
   -2.0606    0.7500    0.0000 C   0  0  0  0  0  0  0  0  0  0  0  0
   -1.0964    1.8991    0.0000 C   0  0  0  0  0  0  0  0  0  0  0  0
    0.3808    2.1595    0.0000 C   0  0  0  0  0  0  0  0  0  0  0  0
    0.3808    3.6595    0.0000 C   0  0  0  0  0  0  0  0  0  0  0  0
  1  2  1  0
  2  3  2  0
  3  4  1  0
  4  5  2  0
  5  6  1  0
  6  7  2  0
  7  8  1  0
  8  9  2  0
  9 10  1  0
 10 11  2  0
 11 12  1  0
 12 13  2  0
 13 14  1  0
 14  2  1  0
 13  5  1  0
M  END
>  <Title>  (810) 
idABFDgen7

$$$$

     RDKit          2D

 29 31  0  0  0  0  0  0  0  0999 V2000
    5.1478   -1.2990    0.0000 C   0  0  0  0  0  0  0  0  0  0  0  0
    4.3978    0.0000    0.0000 O   0  0  0  0  0  0  0  0  0  0  0  0
    2.8978    0.0000    0.0000 C   0  0  0  0  0  0  0  0  0  0  0  0
    2.5095   -1.4489    0.0000 C   0  0  0  0  0  0  0  0  0  0  0  0
    1.4489   -2.5095    0.0000 C   0  0  0  0  0  0  0  0  0  0  0  0
   -0.0000   -2.8978    0.0000 C   0  0  0  0  0  0  0  0  0  0  0  0
   -1.4489   -2.5095    0.0000 C   0  0  0  0  0  0  0  0  0  0  0  0
   -2.5095   -1.4489    0.0000 C   0  0  0  0  0  0  0  0  0  0  0  0
   -2.8978    0.0000    0.0000 C   0  0  0  0  0  0  0  0  0  0  0  0
   -2.5095    1.4489    0.0000 C   0  0  0  0  0  0  0  0  0  0  0  0
   -1.4489    2.5095    0.0000 C   0  0  0  0  0  0  0  0  0  0  0  0
    0.0000    2.8978    0.0000 C   0  0  0  0  0  0  0  0  0  0  0  0
    0.0000    4.3978    0.0000 C   0  0  0  0  0  0  0  0  0  0  0  0
   -1.2135    5.2795    0.0000 N   0  0  0  0  0  0  0  0  0  0  0  0
   -0.7500    6.7060    0.0000 N   0  0  0  0  0  0  0  0  0  0  0  0
    0.7500    6.7060    0.0000 N   0  0  0  0  0  0  0  0  0  0  0  0
    1.2135    5.2795    0.0000 N   0  0  0  0  0  0  0  0  0  0  0  0
    2.6401    4.8159    0.0000 C   0  0  0  0  0  0  0  0  0  0  0  0
    2.9520    3.3487    0.0000 C   0  0  0  0  0  0  0  0  0  0  0  0
    4.3786    2.8852    0.0000 C   0  0  0  0  0  0  0  0  0  0  0  0
    5.4933    3.8889    0.0000 C   0  0  0  0  0  0  0  0  0  0  0  0
    6.9199    3.4254    0.0000 C   0  0  0  0  0  0  0  0  0  0  0  0
    8.0346    4.4290    0.0000 O   0  0  0  0  0  0  0  0  0  0  0  0
    7.2317    1.9581    0.0000 N   0  0  0  0  0  0  0  0  0  0  0  0
    8.6583    1.4946    0.0000 O   0  0  0  0  0  0  0  0  0  0  0  0
    5.1814    5.3561    0.0000 C   0  0  0  0  0  0  0  0  0  0  0  0
    3.7548    5.8196    0.0000 C   0  0  0  0  0  0  0  0  0  0  0  0
    1.4489    2.5095    0.0000 C   0  0  0  0  0  0  0  0  0  0  0  0
    2.5095    1.4489    0.0000 N   0  0  0  0  0  0  0  0  0  0  0  0
  1  2  1  0
  2  3  1  0
  3  4  2  0
  4  5  1  0
  5  6  2  0
  6  7  1  0
  7  8  2  0
  8  9  1  0
  9 10  2  0
 10 11  1  0
 11 12  2  0
 12 13  1  0
 13 14  2  0
 14 15  1  0
 15 16  2  0
 16 17  1  0
 17 18  1  0
 18 19  2  0
 19 20  1  0
 20 21  2  0
 21 22  1  0
 22 23  2  0
 22 24  1  0
 24 25  1  0
 21 26  1  0
 26 27  1  0
 12 28  1  0
 28 29  1  0
 29  3  1  0
 17 13  1  0
 27 18  1  0
M  END
>  <Title>  (811) 
idABFEgen7

$$$$

     RDKit          2D

 38 43  0  0  0  0  0  0  0  0999 V2000
  -14.9962    5.8473    0.0000 C   0  0  0  0  0  0  0  0  0  0  0  0
  -13.7827    4.9656    0.0000 C   0  0  0  0  0  0  0  0  0  0  0  0
  -13.9395    3.4739    0.0000 C   0  0  0  0  0  0  0  0  0  0  0  0
  -12.7260    2.5922    0.0000 C   0  0  0  0  0  0  0  0  0  0  0  0
  -11.3556    3.2023    0.0000 C   0  0  0  0  0  0  0  0  0  0  0  0
  -10.1421    2.3206    0.0000 C   0  0  0  0  0  0  0  0  0  0  0  0
  -10.2989    0.8288    0.0000 O   0  0  0  0  0  0  0  0  0  0  0  0
   -8.7718    2.9307    0.0000 N   0  0  0  0  0  0  0  0  0  0  0  0
   -7.5583    2.0490    0.0000 C   0  0  0  0  0  0  0  0  0  0  0  0
   -7.5583    0.5490    0.0000 N   0  0  0  0  0  0  0  0  0  0  0  0
   -6.1317    0.0855    0.0000 N   0  0  0  0  0  0  0  0  0  0  0  0
   -5.2500    1.2990    0.0000 N   0  0  0  0  0  0  0  0  0  0  0  0
   -6.1317    2.5126    0.0000 N   0  0  0  0  0  0  0  0  0  0  0  0
   -5.6682    3.9391    0.0000 C   0  0  0  0  0  0  0  0  0  0  0  0
   -6.5498    5.1527    0.0000 C   0  0  0  0  0  0  0  0  0  0  0  0
   -5.6682    6.3662    0.0000 N   0  0  0  0  0  0  0  0  0  0  0  0
   -4.2416    5.9027    0.0000 N   0  0  0  0  0  0  0  0  0  0  0  0
   -4.2416    4.4027    0.0000 N   0  0  0  0  0  0  0  0  0  0  0  0
   -3.0280    3.5210    0.0000 C   0  0  0  0  0  0  0  0  0  0  0  0
   -3.0280    2.0210    0.0000 C   0  0  0  0  0  0  0  0  0  0  0  0
   -1.6015    1.5575    0.0000 C   0  0  0  0  0  0  0  0  0  0  0  0
   -0.7198    2.7710    0.0000 C   0  0  0  0  0  0  0  0  0  0  0  0
    0.7802    2.7710    0.0000 C   0  0  0  0  0  0  0  0  0  0  0  0
    1.6619    1.5575    0.0000 N   0  0  0  0  0  0  0  0  0  0  0  0
    3.0885    2.0210    0.0000 N   0  0  0  0  0  0  0  0  0  0  0  0
    3.0885    3.5210    0.0000 N   0  0  0  0  0  0  0  0  0  0  0  0
    1.6619    3.9845    0.0000 N   0  0  0  0  0  0  0  0  0  0  0  0
    1.1984    5.4111    0.0000 C   0  0  0  0  0  0  0  0  0  0  0  0
   -0.2688    5.7230    0.0000 C   0  0  0  0  0  0  0  0  0  0  0  0
   -0.7324    7.1496    0.0000 C   0  0  0  0  0  0  0  0  0  0  0  0
    0.2713    8.2643    0.0000 C   0  0  0  0  0  0  0  0  0  0  0  0
    1.7385    7.9524    0.0000 C   0  0  0  0  0  0  0  0  0  0  0  0
    2.2021    6.5258    0.0000 C   0  0  0  0  0  0  0  0  0  0  0  0
   -1.6015    3.9845    0.0000 C   0  0  0  0  0  0  0  0  0  0  0  0
   -1.1379    5.4111    0.0000 O   0  0  0  0  0  0  0  0  0  0  0  0
  -11.1988    4.6941    0.0000 C   0  0  0  0  0  0  0  0  0  0  0  0
   -9.8285    5.3042    0.0000 O   0  0  0  0  0  0  0  0  0  0  0  0
  -12.4124    5.5757    0.0000 N   0  0  0  0  0  0  0  0  0  0  0  0
  1  2  1  0
  2  3  2  0
  3  4  1  0
  4  5  2  0
  5  6  1  0
  6  7  2  0
  6  8  1  0
  8  9  1  0
  9 10  2  0
 10 11  1  0
 11 12  2  0
 12 13  1  0
 13 14  1  0
 14 15  2  0
 15 16  1  0
 16 17  2  0
 17 18  1  0
 18 19  1  0
 19 20  2  0
 20 21  1  0
 21 22  2  0
 22 23  1  0
 23 24  2  0
 24 25  1  0
 25 26  2  0
 26 27  1  0
 27 28  1  0
 28 29  2  0
 29 30  1  0
 30 31  2  0
 31 32  1  0
 32 33  2  0
 22 34  1  0
 34 35  2  0
  5 36  1  0
 36 37  2  0
 36 38  1  0
 38  2  1  0
 13  9  1  0
 18 14  1  0
 34 19  1  0
 27 23  1  0
 33 28  1  0
M  END
>  <Title>  (812) 
idABFFgen7

$$$$

     RDKit          2D

  7  7  0  0  0  0  0  0  0  0999 V2000
    3.0000    0.0000    0.0000 O   0  0  0  0  0  0  0  0  0  0  0  0
    1.5000    0.0000    0.0000 C   0  0  0  0  0  0  0  0  0  0  0  0
    0.7500   -1.2990    0.0000 C   0  0  0  0  0  0  0  0  0  0  0  0
   -0.7500   -1.2990    0.0000 C   0  0  0  0  0  0  0  0  0  0  0  0
   -1.5000    0.0000    0.0000 C   0  0  0  0  0  0  0  0  0  0  0  0
   -0.7500    1.2990    0.0000 C   0  0  0  0  0  0  0  0  0  0  0  0
    0.7500    1.2990    0.0000 C   0  0  0  0  0  0  0  0  0  0  0  0
  1  2  1  0
  2  3  2  0
  3  4  1  0
  4  5  2  0
  5  6  1  0
  6  7  1  0
  7  2  1  0
M  END
>  <Title>  (813) 
idABFGgen7

$$$$

     RDKit          2D

 53 60  0  0  0  0  0  0  0  0999 V2000
    3.0000    0.0000    0.0000 C   0  0  0  0  0  0  0  0  0  0  0  0
    1.5000    0.0000    0.0000 C   0  0  0  0  0  0  0  0  0  0  0  0
    0.7500   -1.2990    0.0000 C   0  0  0  0  0  0  0  0  0  0  0  0
   -0.7500   -1.2990    0.0000 C   0  0  0  0  0  0  0  0  0  0  0  0
   -1.5000    0.0000    0.0000 C   0  0  0  0  0  0  0  0  0  0  0  0
   -3.0000    0.0000    0.0000 C   0  0  0  0  0  0  0  0  0  0  0  0
   -3.8817   -1.2135    0.0000 N   0  0  0  0  0  0  0  0  0  0  0  0
   -5.3083   -0.7500    0.0000 N   0  0  0  0  0  0  0  0  0  0  0  0
   -5.3083    0.7500    0.0000 N   0  0  0  0  0  0  0  0  0  0  0  0
   -3.8817    1.2135    0.0000 N   0  0  0  0  0  0  0  0  0  0  0  0
   -3.4182    2.6401    0.0000 C   0  0  0  0  0  0  0  0  0  0  0  0
   -1.9509    2.9520    0.0000 C   0  0  0  0  0  0  0  0  0  0  0  0
   -1.4874    4.3786    0.0000 C   0  0  0  0  0  0  0  0  0  0  0  0
   -2.4911    5.4933    0.0000 C   0  0  0  0  0  0  0  0  0  0  0  0
   -2.0276    6.9199    0.0000 C   0  0  0  0  0  0  0  0  0  0  0  0
   -0.5604    7.2317    0.0000 C   0  0  0  0  0  0  0  0  0  0  0  0
   -0.0968    8.6583    0.0000 C   0  0  0  0  0  0  0  0  0  0  0  0
   -1.1005    9.7730    0.0000 C   0  0  0  0  0  0  0  0  0  0  0  0
   -0.6370   11.1996    0.0000 C   0  0  0  0  0  0  0  0  0  0  0  0
    0.8302   11.5115    0.0000 C   0  0  0  0  0  0  0  0  0  0  0  0
    1.2937   12.9381    0.0000 C   0  0  0  0  0  0  0  0  0  0  0  0
    0.2901   14.0528    0.0000 C   0  0  0  0  0  0  0  0  0  0  0  0
   -1.1772   13.7409    0.0000 C   0  0  0  0  0  0  0  0  0  0  0  0
   -1.6407   12.3143    0.0000 C   0  0  0  0  0  0  0  0  0  0  0  0
   -2.5677    9.4612    0.0000 C   0  0  0  0  0  0  0  0  0  0  0  0
   -3.0313    8.0346    0.0000 C   0  0  0  0  0  0  0  0  0  0  0  0
   -3.9583    5.1814    0.0000 C   0  0  0  0  0  0  0  0  0  0  0  0
   -4.4218    3.7548    0.0000 C   0  0  0  0  0  0  0  0  0  0  0  0
   -5.8891    3.4430    0.0000 C   0  0  0  0  0  0  0  0  0  0  0  0
   -6.3526    2.0164    0.0000 C   0  0  0  0  0  0  0  0  0  0  0  0
   -7.8198    1.7045    0.0000 C   0  0  0  0  0  0  0  0  0  0  0  0
   -8.8235    2.8192    0.0000 C   0  0  0  0  0  0  0  0  0  0  0  0
  -10.2907    2.5074    0.0000 C   0  0  0  0  0  0  0  0  0  0  0  0
  -11.2944    3.6221    0.0000 O   0  0  0  0  0  0  0  0  0  0  0  0
  -10.7543    1.0808    0.0000 N   0  0  0  0  0  0  0  0  0  0  0  0
  -12.2215    0.7689    0.0000 C   0  0  0  0  0  0  0  0  0  0  0  0
  -12.6850   -0.6577    0.0000 C   0  0  0  0  0  0  0  0  0  0  0  0
  -14.1522   -0.9695    0.0000 C   0  0  0  0  0  0  0  0  0  0  0  0
  -15.1559    0.1452    0.0000 C   0  0  0  0  0  0  0  0  0  0  0  0
  -14.6924    1.5718    0.0000 C   0  0  0  0  0  0  0  0  0  0  0  0
  -13.2252    1.8836    0.0000 C   0  0  0  0  0  0  0  0  0  0  0  0
   -8.3600    4.2458    0.0000 C   0  0  0  0  0  0  0  0  0  0  0  0
   -6.8928    4.5577    0.0000 C   0  0  0  0  0  0  0  0  0  0  0  0
   -6.4292    5.9843    0.0000 C   0  0  0  0  0  0  0  0  0  0  0  0
   -4.9620    6.2961    0.0000 C   0  0  0  0  0  0  0  0  0  0  0  0
   -4.4985    7.7227    0.0000 C   0  0  0  0  0  0  0  0  0  0  0  0
   -5.5022    8.8374    0.0000 C   0  0  0  0  0  0  0  0  0  0  0  0
   -5.0387   10.2640    0.0000 C   0  0  0  0  0  0  0  0  0  0  0  0
   -6.9694    8.5256    0.0000 C   0  0  0  0  0  0  0  0  0  0  0  0
   -7.9731    9.6403    0.0000 O   0  0  0  0  0  0  0  0  0  0  0  0
   -7.4329    7.0990    0.0000 N   0  0  0  0  0  0  0  0  0  0  0  0
   -0.7500    1.2990    0.0000 N   0  0  0  0  0  0  0  0  0  0  0  0
    0.7500    1.2990    0.0000 C   0  0  0  0  0  0  0  0  0  0  0  0
  1  2  1  0
  2  3  2  0
  3  4  1  0
  4  5  2  0
  5  6  1  0
  6  7  2  0
  7  8  1  0
  8  9  2  0
  9 10  1  0
 10 11  1  0
 11 12  2  0
 12 13  1  0
 13 14  2  0
 14 15  1  0
 15 16  2  0
 16 17  1  0
 17 18  2  0
 18 19  1  0
 19 20  2  0
 20 21  1  0
 21 22  2  0
 22 23  1  0
 23 24  2  0
 18 25  1  0
 25 26  2  0
 14 27  1  0
 27 28  2  0
 28 29  1  0
 29 30  2  0
 30 31  1  0
 31 32  2  0
 32 33  1  0
 33 34  2  0
 33 35  1  0
 35 36  1  0
 36 37  2  0
 37 38  1  0
 38 39  2  0
 39 40  1  0
 40 41  2  0
 32 42  1  0
 42 43  2  0
 43 44  1  0
 44 45  2  0
 45 46  1  0
 46 47  2  0
 47 48  1  0
 47 49  1  0
 49 50  2  0
 49 51  1  0
  5 52  1  0
 52 53  2  0
 53  2  1  0
 10  6  1  0
 28 11  1  0
 43 29  1  0
 51 44  1  0
 26 15  1  0
 41 36  1  0
 24 19  1  0
M  END
>  <Title>  (814) 
idABFHgen7

$$$$

     RDKit          2D

 16 17  0  0  0  0  0  0  0  0999 V2000
    1.8607   -7.5981    0.0000 C   0  0  0  0  0  0  0  0  0  0  0  0
    2.3737   -6.1885    0.0000 O   0  0  0  0  0  0  0  0  0  0  0  0
    1.4095   -5.0395    0.0000 C   0  0  0  0  0  0  0  0  0  0  0  0
    2.1595   -3.7404    0.0000 C   0  0  0  0  0  0  0  0  0  0  0  0
    1.8991   -2.2632    0.0000 C   0  0  0  0  0  0  0  0  0  0  0  0
    0.7500   -1.2990    0.0000 C   0  0  0  0  0  0  0  0  0  0  0  0
    1.5000    0.0000    0.0000 N   0  0  0  0  0  0  0  0  0  0  0  0
    0.7500    1.2990    0.0000 N   0  0  0  0  0  0  0  0  0  0  0  0
   -0.7500    1.2990    0.0000 N   0  0  0  0  0  0  0  0  0  0  0  0
   -1.5000    0.0000    0.0000 N   0  0  0  0  0  0  0  0  0  0  0  0
   -0.7500   -1.2990    0.0000 N   0  0  0  0  0  0  0  0  0  0  0  0
   -1.8991   -2.2632    0.0000 C   0  0  0  0  0  0  0  0  0  0  0  0
   -3.1981   -1.5132    0.0000 C   0  0  0  0  0  0  0  0  0  0  0  0
   -2.1595   -3.7404    0.0000 C   0  0  0  0  0  0  0  0  0  0  0  0
   -1.4095   -5.0395    0.0000 C   0  0  0  0  0  0  0  0  0  0  0  0
   -0.0000   -5.5525    0.0000 C   0  0  0  0  0  0  0  0  0  0  0  0
  1  2  1  0
  2  3  1  0
  3  4  2  0
  4  5  1  0
  5  6  2  0
  6  7  1  0
  7  8  2  0
  8  9  1  0
  9 10  2  0
 10 11  1  0
 11 12  1  0
 12 13  1  0
 12 14  2  0
 14 15  1  0
 15 16  2  0
 16  3  1  0
 11  6  1  0
M  END
>  <Title>  (815) 
idABFIgen7

$$$$

     RDKit          2D

 43 48  0  0  0  0  0  0  0  0999 V2000
  -12.2587   12.3640    0.0000 C   0  0  0  0  0  0  0  0  0  0  0  0
  -11.0451   11.4824    0.0000 C   0  0  0  0  0  0  0  0  0  0  0  0
   -9.6748   12.0925    0.0000 C   0  0  0  0  0  0  0  0  0  0  0  0
   -8.4613   11.2108    0.0000 C   0  0  0  0  0  0  0  0  0  0  0  0
   -8.6181    9.7190    0.0000 C   0  0  0  0  0  0  0  0  0  0  0  0
   -7.4046    8.8373    0.0000 C   0  0  0  0  0  0  0  0  0  0  0  0
   -7.5613    7.3456    0.0000 C   0  0  0  0  0  0  0  0  0  0  0  0
   -8.9317    6.7354    0.0000 O   0  0  0  0  0  0  0  0  0  0  0  0
   -6.3478    6.4639    0.0000 N   0  0  0  0  0  0  0  0  0  0  0  0
   -6.5046    4.9721    0.0000 C   0  0  0  0  0  0  0  0  0  0  0  0
   -7.8037    4.2221    0.0000 N   0  0  0  0  0  0  0  0  0  0  0  0
   -7.4918    2.7549    0.0000 N   0  0  0  0  0  0  0  0  0  0  0  0
   -6.0000    2.5981    0.0000 N   0  0  0  0  0  0  0  0  0  0  0  0
   -5.3899    3.9684    0.0000 N   0  0  0  0  0  0  0  0  0  0  0  0
   -3.9227    4.2803    0.0000 C   0  0  0  0  0  0  0  0  0  0  0  0
   -3.3126    5.6506    0.0000 C   0  0  0  0  0  0  0  0  0  0  0  0
   -1.8208    5.4938    0.0000 C   0  0  0  0  0  0  0  0  0  0  0  0
   -1.5089    4.0266    0.0000 C   0  0  0  0  0  0  0  0  0  0  0  0
   -0.1386    3.4165    0.0000 C   0  0  0  0  0  0  0  0  0  0  0  0
    0.0182    1.9247    0.0000 O   0  0  0  0  0  0  0  0  0  0  0  0
    1.0749    4.2981    0.0000 N   0  0  0  0  0  0  0  0  0  0  0  0
    2.4452    3.6880    0.0000 C   0  0  0  0  0  0  0  0  0  0  0  0
    2.7571    2.2208    0.0000 N   0  0  0  0  0  0  0  0  0  0  0  0
    4.2489    2.0640    0.0000 N   0  0  0  0  0  0  0  0  0  0  0  0
    4.8590    3.4343    0.0000 N   0  0  0  0  0  0  0  0  0  0  0  0
    3.7443    4.4380    0.0000 N   0  0  0  0  0  0  0  0  0  0  0  0
    3.9011    5.9298    0.0000 C   0  0  0  0  0  0  0  0  0  0  0  0
    2.6875    6.8115    0.0000 C   0  0  0  0  0  0  0  0  0  0  0  0
    2.8443    8.3033    0.0000 C   0  0  0  0  0  0  0  0  0  0  0  0
    4.2147    8.9134    0.0000 C   0  0  0  0  0  0  0  0  0  0  0  0
    4.3715   10.4052    0.0000 C   0  0  0  0  0  0  0  0  0  0  0  0
    3.1579   11.2868    0.0000 C   0  0  0  0  0  0  0  0  0  0  0  0
    3.3147   12.7786    0.0000 C   0  0  0  0  0  0  0  0  0  0  0  0
    4.6850   13.3887    0.0000 C   0  0  0  0  0  0  0  0  0  0  0  0
    5.8986   12.5071    0.0000 C   0  0  0  0  0  0  0  0  0  0  0  0
    5.7418   11.0153    0.0000 C   0  0  0  0  0  0  0  0  0  0  0  0
    5.4282    8.0317    0.0000 C   0  0  0  0  0  0  0  0  0  0  0  0
    5.2714    6.5399    0.0000 C   0  0  0  0  0  0  0  0  0  0  0  0
   -2.8080    3.2766    0.0000 C   0  0  0  0  0  0  0  0  0  0  0  0
   -2.9647    1.7848    0.0000 O   0  0  0  0  0  0  0  0  0  0  0  0
   -9.9884    9.1089    0.0000 C   0  0  0  0  0  0  0  0  0  0  0  0
  -10.1452    7.6171    0.0000 O   0  0  0  0  0  0  0  0  0  0  0  0
  -11.2019    9.9906    0.0000 N   0  0  0  0  0  0  0  0  0  0  0  0
  1  2  1  0
  2  3  2  0
  3  4  1  0
  4  5  2  0
  5  6  1  0
  6  7  1  0
  7  8  2  0
  7  9  1  0
  9 10  1  0
 10 11  2  0
 11 12  1  0
 12 13  2  0
 13 14  1  0
 14 15  1  0
 15 16  2  0
 16 17  1  0
 17 18  2  0
 18 19  1  0
 19 20  2  0
 19 21  1  0
 21 22  1  0
 22 23  2  0
 23 24  1  0
 24 25  2  0
 25 26  1  0
 26 27  1  0
 27 28  2  0
 28 29  1  0
 29 30  2  0
 30 31  1  0
 31 32  2  0
 32 33  1  0
 33 34  2  0
 34 35  1  0
 35 36  2  0
 30 37  1  0
 37 38  2  0
 18 39  1  0
 39 40  2  0
  5 41  1  0
 41 42  2  0
 41 43  1  0
 43  2  1  0
 14 10  1  0
 39 15  1  0
 26 22  1  0
 38 27  1  0
 36 31  1  0
M  END
>  <Title>  (816) 
idABFJgen7

$$$$

     RDKit          2D

 26 29  0  0  0  0  0  0  0  0999 V2000
    3.0000    0.0000    0.0000 C   0  0  0  0  0  0  0  0  0  0  0  0
    1.5000    0.0000    0.0000 C   0  0  0  0  0  0  0  0  0  0  0  0
    0.7500   -1.2990    0.0000 C   0  0  0  0  0  0  0  0  0  0  0  0
   -0.7500   -1.2990    0.0000 C   0  0  0  0  0  0  0  0  0  0  0  0
   -1.5000    0.0000    0.0000 C   0  0  0  0  0  0  0  0  0  0  0  0
   -3.0000    0.0000    0.0000 C   0  0  0  0  0  0  0  0  0  0  0  0
   -3.8817   -1.2135    0.0000 N   0  0  0  0  0  0  0  0  0  0  0  0
   -5.3083   -0.7500    0.0000 N   0  0  0  0  0  0  0  0  0  0  0  0
   -5.3083    0.7500    0.0000 N   0  0  0  0  0  0  0  0  0  0  0  0
   -3.8817    1.2135    0.0000 N   0  0  0  0  0  0  0  0  0  0  0  0
   -3.4182    2.6401    0.0000 C   0  0  0  0  0  0  0  0  0  0  0  0
   -1.9509    2.9520    0.0000 C   0  0  0  0  0  0  0  0  0  0  0  0
   -1.4874    4.3786    0.0000 C   0  0  0  0  0  0  0  0  0  0  0  0
   -2.4911    5.4933    0.0000 C   0  0  0  0  0  0  0  0  0  0  0  0
   -2.0276    6.9199    0.0000 C   0  0  0  0  0  0  0  0  0  0  0  0
   -2.9093    8.1334    0.0000 C   0  0  0  0  0  0  0  0  0  0  0  0
   -2.0276    9.3469    0.0000 C   0  0  0  0  0  0  0  0  0  0  0  0
   -0.6010    8.8834    0.0000 C   0  0  0  0  0  0  0  0  0  0  0  0
    0.6125    9.7651    0.0000 C   0  0  0  0  0  0  0  0  0  0  0  0
   -0.6010    7.3834    0.0000 C   0  0  0  0  0  0  0  0  0  0  0  0
    0.6125    6.5017    0.0000 O   0  0  0  0  0  0  0  0  0  0  0  0
   -3.9583    5.1814    0.0000 C   0  0  0  0  0  0  0  0  0  0  0  0
   -4.9620    6.2961    0.0000 O   0  0  0  0  0  0  0  0  0  0  0  0
   -4.4218    3.7548    0.0000 N   0  0  0  0  0  0  0  0  0  0  0  0
   -0.7500    1.2990    0.0000 N   0  0  0  0  0  0  0  0  0  0  0  0
    0.7500    1.2990    0.0000 C   0  0  0  0  0  0  0  0  0  0  0  0
  1  2  1  0
  2  3  2  0
  3  4  1  0
  4  5  2  0
  5  6  1  0
  6  7  2  0
  7  8  1  0
  8  9  2  0
  9 10  1  0
 10 11  1  0
 11 12  2  0
 12 13  1  0
 13 14  2  0
 14 15  1  0
 15 16  2  0
 16 17  1  0
 17 18  2  0
 18 19  1  0
 18 20  1  0
 20 21  2  0
 14 22  1  0
 22 23  2  0
 22 24  1  0
  5 25  1  0
 25 26  1  0
 26  2  1  0
 10  6  1  0
 24 11  1  0
 20 15  1  0
M  END
>  <Title>  (817) 
idABFKgen7

$$$$

     RDKit          2D

 11 11  0  0  0  0  0  0  0  0999 V2000
    3.9271    0.0000    0.0000 C   0  0  0  0  0  0  0  0  0  0  0  0
    2.4271    0.0000    0.0000 C   0  0  0  0  0  0  0  0  0  0  0  0
    1.9635   -1.4266    0.0000 C   0  0  0  0  0  0  0  0  0  0  0  0
    0.7500   -2.3083    0.0000 C   0  0  0  0  0  0  0  0  0  0  0  0
   -0.7500   -2.3083    0.0000 C   0  0  0  0  0  0  0  0  0  0  0  0
   -1.9635   -1.4266    0.0000 C   0  0  0  0  0  0  0  0  0  0  0  0
   -2.4271    0.0000    0.0000 C   0  0  0  0  0  0  0  0  0  0  0  0
   -1.9635    1.4266    0.0000 C   0  0  0  0  0  0  0  0  0  0  0  0
   -0.7500    2.3083    0.0000 C   0  0  0  0  0  0  0  0  0  0  0  0
    0.7500    2.3083    0.0000 C   0  0  0  0  0  0  0  0  0  0  0  0
    1.9635    1.4266    0.0000 C   0  0  0  0  0  0  0  0  0  0  0  0
  1  2  2  0
  2  3  1  0
  3  4  1  0
  4  5  1  0
  5  6  1  0
  6  7  1  0
  7  8  1  0
  8  9  1  0
  9 10  1  0
 10 11  1  0
 11  2  1  0
M  END
>  <Title>  (818) 
idABFLgen7

$$$$

     RDKit          2D

 65 75  0  0  0  0  0  0  0  0999 V2000
   -8.9519    8.6915    0.0000 C   0  0  0  0  0  0  0  0  0  0  0  0
   -7.7384    7.8099    0.0000 C   0  0  0  0  0  0  0  0  0  0  0  0
   -7.8952    6.3181    0.0000 C   0  0  0  0  0  0  0  0  0  0  0  0
   -6.6817    5.4364    0.0000 C   0  0  0  0  0  0  0  0  0  0  0  0
   -5.3113    6.0465    0.0000 C   0  0  0  0  0  0  0  0  0  0  0  0
   -4.0978    5.1648    0.0000 C   0  0  0  0  0  0  0  0  0  0  0  0
   -4.2546    3.6731    0.0000 C   0  0  0  0  0  0  0  0  0  0  0  0
   -5.5537    2.9231    0.0000 N   0  0  0  0  0  0  0  0  0  0  0  0
   -5.2418    1.4558    0.0000 N   0  0  0  0  0  0  0  0  0  0  0  0
   -3.7500    1.2990    0.0000 N   0  0  0  0  0  0  0  0  0  0  0  0
   -3.1399    2.6694    0.0000 N   0  0  0  0  0  0  0  0  0  0  0  0
   -1.6727    2.9812    0.0000 C   0  0  0  0  0  0  0  0  0  0  0  0
   -1.0626    4.3515    0.0000 N   0  0  0  0  0  0  0  0  0  0  0  0
    0.4292    4.1947    0.0000 N   0  0  0  0  0  0  0  0  0  0  0  0
    0.7411    2.7275    0.0000 N   0  0  0  0  0  0  0  0  0  0  0  0
   -0.5580    1.9775    0.0000 N   0  0  0  0  0  0  0  0  0  0  0  0
   -0.7147    0.4857    0.0000 C   0  0  0  0  0  0  0  0  0  0  0  0
   -2.0851   -0.1244    0.0000 C   0  0  0  0  0  0  0  0  0  0  0  0
   -2.2419   -1.6161    0.0000 C   0  0  0  0  0  0  0  0  0  0  0  0
   -1.0283   -2.4978    0.0000 C   0  0  0  0  0  0  0  0  0  0  0  0
   -1.1851   -3.9896    0.0000 C   0  0  0  0  0  0  0  0  0  0  0  0
   -0.0704   -4.9933    0.0000 N   0  0  0  0  0  0  0  0  0  0  0  0
   -0.6805   -6.3636    0.0000 N   0  0  0  0  0  0  0  0  0  0  0  0
   -2.1723   -6.2068    0.0000 N   0  0  0  0  0  0  0  0  0  0  0  0
   -2.4842   -4.7396    0.0000 N   0  0  0  0  0  0  0  0  0  0  0  0
   -3.8545   -4.1295    0.0000 C   0  0  0  0  0  0  0  0  0  0  0  0
   -4.0113   -2.6377    0.0000 C   0  0  0  0  0  0  0  0  0  0  0  0
   -5.3816   -2.0276    0.0000 C   0  0  0  0  0  0  0  0  0  0  0  0
   -6.5951   -2.9093    0.0000 C   0  0  0  0  0  0  0  0  0  0  0  0
   -7.9654   -2.2992    0.0000 C   0  0  0  0  0  0  0  0  0  0  0  0
   -8.1222   -0.8074    0.0000 C   0  0  0  0  0  0  0  0  0  0  0  0
   -9.4925   -0.1973    0.0000 C   0  0  0  0  0  0  0  0  0  0  0  0
  -10.7061   -1.0790    0.0000 C   0  0  0  0  0  0  0  0  0  0  0  0
  -10.5493   -2.5708    0.0000 C   0  0  0  0  0  0  0  0  0  0  0  0
   -9.1790   -3.1809    0.0000 C   0  0  0  0  0  0  0  0  0  0  0  0
   -6.4383   -4.4011    0.0000 C   0  0  0  0  0  0  0  0  0  0  0  0
   -5.0680   -5.0112    0.0000 C   0  0  0  0  0  0  0  0  0  0  0  0
   -4.9112   -6.5030    0.0000 C   0  0  0  0  0  0  0  0  0  0  0  0
   -6.1247   -7.3846    0.0000 C   0  0  0  0  0  0  0  0  0  0  0  0
   -5.9679   -8.8764    0.0000 C   0  0  0  0  0  0  0  0  0  0  0  0
   -4.5976   -9.4865    0.0000 C   0  0  0  0  0  0  0  0  0  0  0  0
   -3.3841   -8.6048    0.0000 C   0  0  0  0  0  0  0  0  0  0  0  0
   -3.5409   -7.1131    0.0000 C   0  0  0  0  0  0  0  0  0  0  0  0
    0.3420   -1.8877    0.0000 C   0  0  0  0  0  0  0  0  0  0  0  0
    0.4988   -0.3959    0.0000 C   0  0  0  0  0  0  0  0  0  0  0  0
    1.8691    0.2142    0.0000 C   0  0  0  0  0  0  0  0  0  0  0  0
    3.0826   -0.6675    0.0000 C   0  0  0  0  0  0  0  0  0  0  0  0
    4.4529   -0.0574    0.0000 C   0  0  0  0  0  0  0  0  0  0  0  0
    4.6097    1.4344    0.0000 C   0  0  0  0  0  0  0  0  0  0  0  0
    5.9800    2.0445    0.0000 C   0  0  0  0  0  0  0  0  0  0  0  0
    6.2919    3.5117    0.0000 N   0  0  0  0  0  0  0  0  0  0  0  0
    7.7837    3.6685    0.0000 N   0  0  0  0  0  0  0  0  0  0  0  0
    8.3938    2.2982    0.0000 N   0  0  0  0  0  0  0  0  0  0  0  0
    7.2791    1.2945    0.0000 N   0  0  0  0  0  0  0  0  0  0  0  0
    7.4359   -0.1973    0.0000 C   0  0  0  0  0  0  0  0  0  0  0  0
    6.2224   -1.0790    0.0000 C   0  0  0  0  0  0  0  0  0  0  0  0
    6.3791   -2.5708    0.0000 C   0  0  0  0  0  0  0  0  0  0  0  0
    7.7495   -3.1809    0.0000 C   0  0  0  0  0  0  0  0  0  0  0  0
    8.9630   -2.2992    0.0000 C   0  0  0  0  0  0  0  0  0  0  0  0
    8.8062   -0.8074    0.0000 C   0  0  0  0  0  0  0  0  0  0  0  0
    3.3962    2.3161    0.0000 C   0  0  0  0  0  0  0  0  0  0  0  0
    2.0259    1.7060    0.0000 C   0  0  0  0  0  0  0  0  0  0  0  0
   -5.1546    7.5383    0.0000 C   0  0  0  0  0  0  0  0  0  0  0  0
   -3.7842    8.1484    0.0000 O   0  0  0  0  0  0  0  0  0  0  0  0
   -6.3681    8.4200    0.0000 N   0  0  0  0  0  0  0  0  0  0  0  0
  1  2  1  0
  2  3  2  0
  3  4  1  0
  4  5  2  0
  5  6  1  0
  6  7  1  0
  7  8  2  0
  8  9  1  0
  9 10  2  0
 10 11  1  0
 11 12  1  0
 12 13  2  0
 13 14  1  0
 14 15  2  0
 15 16  1  0
 16 17  1  0
 17 18  2  0
 18 19  1  0
 19 20  2  0
 20 21  1  0
 21 22  2  0
 22 23  1  0
 23 24  2  0
 24 25  1  0
 25 26  1  0
 26 27  2  0
 27 28  1  0
 28 29  2  0
 29 30  1  0
 30 31  2  0
 31 32  1  0
 32 33  2  0
 33 34  1  0
 34 35  2  0
 29 36  1  0
 36 37  2  0
 37 38  1  0
 38 39  2  0
 39 40  1  0
 40 41  2  0
 41 42  1  0
 42 43  2  0
 20 44  1  0
 44 45  2  0
 45 46  1  0
 46 47  2  0
 47 48  1  0
 48 49  2  0
 49 50  1  0
 50 51  2  0
 51 52  1  0
 52 53  2  0
 53 54  1  0
 54 55  1  0
 55 56  2  0
 56 57  1  0
 57 58  2  0
 58 59  1  0
 59 60  2  0
 49 61  1  0
 61 62  2  0
  5 63  1  0
 63 64  2  0
 63 65  1  0
 65  2  1  0
 11  7  1  0
 16 12  1  0
 45 17  1  0
 62 46  1  0
 25 21  1  0
 37 26  1  0
 43 38  1  0
 54 50  1  0
 60 55  1  0
 35 30  1  0
M  END
>  <Title>  (819) 
idABFMgen7

$$$$

     RDKit          2D

 45 51  0  0  0  0  0  0  0  0999 V2000
    3.7500   -1.2990    0.0000 C   0  0  0  0  0  0  0  0  0  0  0  0
    3.0000    0.0000    0.0000 O   0  0  0  0  0  0  0  0  0  0  0  0
    1.5000    0.0000    0.0000 C   0  0  0  0  0  0  0  0  0  0  0  0
    0.7500   -1.2990    0.0000 C   0  0  0  0  0  0  0  0  0  0  0  0
   -0.7500   -1.2990    0.0000 C   0  0  0  0  0  0  0  0  0  0  0  0
   -1.5000    0.0000    0.0000 C   0  0  0  0  0  0  0  0  0  0  0  0
   -3.0000    0.0000    0.0000 C   0  0  0  0  0  0  0  0  0  0  0  0
   -3.8817   -1.2135    0.0000 N   0  0  0  0  0  0  0  0  0  0  0  0
   -5.3083   -0.7500    0.0000 N   0  0  0  0  0  0  0  0  0  0  0  0
   -5.3083    0.7500    0.0000 N   0  0  0  0  0  0  0  0  0  0  0  0
   -3.8817    1.2135    0.0000 N   0  0  0  0  0  0  0  0  0  0  0  0
   -3.4182    2.6401    0.0000 C   0  0  0  0  0  0  0  0  0  0  0  0
   -1.9509    2.9520    0.0000 C   0  0  0  0  0  0  0  0  0  0  0  0
   -1.4874    4.3786    0.0000 C   0  0  0  0  0  0  0  0  0  0  0  0
   -2.4911    5.4933    0.0000 C   0  0  0  0  0  0  0  0  0  0  0  0
   -2.0276    6.9199    0.0000 C   0  0  0  0  0  0  0  0  0  0  0  0
   -3.0313    8.0346    0.0000 O   0  0  0  0  0  0  0  0  0  0  0  0
   -0.5604    7.2317    0.0000 N   0  0  0  0  0  0  0  0  0  0  0  0
   -0.0968    8.6583    0.0000 C   0  0  0  0  0  0  0  0  0  0  0  0
   -0.9785    9.8718    0.0000 N   0  0  0  0  0  0  0  0  0  0  0  0
   -0.0968   11.0854    0.0000 N   0  0  0  0  0  0  0  0  0  0  0  0
    1.3298   10.6218    0.0000 N   0  0  0  0  0  0  0  0  0  0  0  0
    1.3298    9.1218    0.0000 N   0  0  0  0  0  0  0  0  0  0  0  0
    2.5433    8.2402    0.0000 C   0  0  0  0  0  0  0  0  0  0  0  0
    2.3865    6.7484    0.0000 C   0  0  0  0  0  0  0  0  0  0  0  0
    3.6000    5.8667    0.0000 C   0  0  0  0  0  0  0  0  0  0  0  0
    4.9703    6.4768    0.0000 C   0  0  0  0  0  0  0  0  0  0  0  0
    5.1271    7.9686    0.0000 C   0  0  0  0  0  0  0  0  0  0  0  0
    3.9136    8.8503    0.0000 C   0  0  0  0  0  0  0  0  0  0  0  0
   -3.9583    5.1814    0.0000 C   0  0  0  0  0  0  0  0  0  0  0  0
   -4.4218    3.7548    0.0000 C   0  0  0  0  0  0  0  0  0  0  0  0
   -5.8891    3.4430    0.0000 C   0  0  0  0  0  0  0  0  0  0  0  0
   -6.8928    4.5577    0.0000 C   0  0  0  0  0  0  0  0  0  0  0  0
   -8.3600    4.2458    0.0000 C   0  0  0  0  0  0  0  0  0  0  0  0
   -8.8235    2.8192    0.0000 C   0  0  0  0  0  0  0  0  0  0  0  0
  -10.2907    2.5074    0.0000 C   0  0  0  0  0  0  0  0  0  0  0  0
  -11.2944    3.6221    0.0000 C   0  0  0  0  0  0  0  0  0  0  0  0
  -12.7617    3.3102    0.0000 C   0  0  0  0  0  0  0  0  0  0  0  0
  -13.2252    1.8836    0.0000 C   0  0  0  0  0  0  0  0  0  0  0  0
  -12.2215    0.7689    0.0000 C   0  0  0  0  0  0  0  0  0  0  0  0
  -10.7543    1.0808    0.0000 C   0  0  0  0  0  0  0  0  0  0  0  0
   -7.8198    1.7045    0.0000 C   0  0  0  0  0  0  0  0  0  0  0  0
   -6.3526    2.0164    0.0000 C   0  0  0  0  0  0  0  0  0  0  0  0
   -0.7500    1.2990    0.0000 C   0  0  0  0  0  0  0  0  0  0  0  0
    0.7500    1.2990    0.0000 C   0  0  0  0  0  0  0  0  0  0  0  0
  1  2  1  0
  2  3  1  0
  3  4  2  0
  4  5  1  0
  5  6  2  0
  6  7  1  0
  7  8  2  0
  8  9  1  0
  9 10  2  0
 10 11  1  0
 11 12  1  0
 12 13  2  0
 13 14  1  0
 14 15  2  0
 15 16  1  0
 16 17  2  0
 16 18  1  0
 18 19  1  0
 19 20  2  0
 20 21  1  0
 21 22  2  0
 22 23  1  0
 23 24  1  0
 24 25  2  0
 25 26  1  0
 26 27  2  0
 27 28  1  0
 28 29  2  0
 15 30  1  0
 30 31  2  0
 31 32  1  0
 32 33  2  0
 33 34  1  0
 34 35  2  0
 35 36  1  0
 36 37  2  0
 37 38  1  0
 38 39  2  0
 39 40  1  0
 40 41  2  0
 35 42  1  0
 42 43  2  0
  6 44  1  0
 44 45  2  0
 45  3  1  0
 11  7  1  0
 31 12  1  0
 43 32  1  0
 23 19  1  0
 29 24  1  0
 41 36  1  0
M  END
>  <Title>  (820) 
idABFNgen7

$$$$

     RDKit          2D

 35 40  0  0  0  0  0  0  0  0999 V2000
    3.0000    0.0000    0.0000 C   0  0  0  0  0  0  0  0  0  0  0  0
    1.5000    0.0000    0.0000 C   0  0  0  0  0  0  0  0  0  0  0  0
    0.7500   -1.2990    0.0000 C   0  0  0  0  0  0  0  0  0  0  0  0
   -0.7500   -1.2990    0.0000 C   0  0  0  0  0  0  0  0  0  0  0  0
   -1.5000    0.0000    0.0000 C   0  0  0  0  0  0  0  0  0  0  0  0
   -3.0000    0.0000    0.0000 C   0  0  0  0  0  0  0  0  0  0  0  0
   -3.8817   -1.2135    0.0000 N   0  0  0  0  0  0  0  0  0  0  0  0
   -5.3083   -0.7500    0.0000 N   0  0  0  0  0  0  0  0  0  0  0  0
   -5.3083    0.7500    0.0000 N   0  0  0  0  0  0  0  0  0  0  0  0
   -3.8817    1.2135    0.0000 N   0  0  0  0  0  0  0  0  0  0  0  0
   -3.4182    2.6401    0.0000 C   0  0  0  0  0  0  0  0  0  0  0  0
   -1.9509    2.9520    0.0000 C   0  0  0  0  0  0  0  0  0  0  0  0
   -1.4874    4.3786    0.0000 C   0  0  0  0  0  0  0  0  0  0  0  0
   -2.4911    5.4933    0.0000 C   0  0  0  0  0  0  0  0  0  0  0  0
   -2.0276    6.9199    0.0000 C   0  0  0  0  0  0  0  0  0  0  0  0
   -2.9093    8.1334    0.0000 N   0  0  0  0  0  0  0  0  0  0  0  0
   -2.0276    9.3469    0.0000 N   0  0  0  0  0  0  0  0  0  0  0  0
   -0.6010    8.8834    0.0000 N   0  0  0  0  0  0  0  0  0  0  0  0
   -0.6010    7.3834    0.0000 N   0  0  0  0  0  0  0  0  0  0  0  0
    0.6125    6.5017    0.0000 C   0  0  0  0  0  0  0  0  0  0  0  0
    0.4557    5.0099    0.0000 C   0  0  0  0  0  0  0  0  0  0  0  0
    1.6693    4.1283    0.0000 C   0  0  0  0  0  0  0  0  0  0  0  0
    3.0396    4.7384    0.0000 C   0  0  0  0  0  0  0  0  0  0  0  0
    4.2531    3.8567    0.0000 C   0  0  0  0  0  0  0  0  0  0  0  0
    4.0963    2.3649    0.0000 C   0  0  0  0  0  0  0  0  0  0  0  0
    5.3098    1.4832    0.0000 C   0  0  0  0  0  0  0  0  0  0  0  0
    6.6802    2.0933    0.0000 C   0  0  0  0  0  0  0  0  0  0  0  0
    6.8370    3.5851    0.0000 C   0  0  0  0  0  0  0  0  0  0  0  0
    5.6234    4.4668    0.0000 C   0  0  0  0  0  0  0  0  0  0  0  0
    3.1964    6.2301    0.0000 C   0  0  0  0  0  0  0  0  0  0  0  0
    1.9829    7.1118    0.0000 C   0  0  0  0  0  0  0  0  0  0  0  0
   -3.9583    5.1814    0.0000 C   0  0  0  0  0  0  0  0  0  0  0  0
   -4.4218    3.7548    0.0000 C   0  0  0  0  0  0  0  0  0  0  0  0
   -0.7500    1.2990    0.0000 C   0  0  0  0  0  0  0  0  0  0  0  0
    0.7500    1.2990    0.0000 C   0  0  0  0  0  0  0  0  0  0  0  0
  1  2  1  0
  2  3  2  0
  3  4  1  0
  4  5  2  0
  5  6  1  0
  6  7  2  0
  7  8  1  0
  8  9  2  0
  9 10  1  0
 10 11  1  0
 11 12  2  0
 12 13  1  0
 13 14  2  0
 14 15  1  0
 15 16  2  0
 16 17  1  0
 17 18  2  0
 18 19  1  0
 19 20  1  0
 20 21  2  0
 21 22  1  0
 22 23  2  0
 23 24  1  0
 24 25  2  0
 25 26  1  0
 26 27  2  0
 27 28  1  0
 28 29  2  0
 23 30  1  0
 30 31  2  0
 14 32  1  0
 32 33  2  0
  5 34  1  0
 34 35  1  0
 35  2  1  0
 10  6  1  0
 33 11  1  0
 19 15  1  0
 31 20  1  0
 29 24  1  0
M  END
>  <Title>  (821) 
idABFOgen7

$$$$

     RDKit          2D

 15 16  0  0  0  0  0  0  0  0999 V2000
    4.8187    6.0424    0.0000 C   0  0  0  0  0  0  0  0  0  0  0  0
    3.8835    4.8697    0.0000 C   0  0  0  0  0  0  0  0  0  0  0  0
    4.4315    3.4734    0.0000 C   0  0  0  0  0  0  0  0  0  0  0  0
    3.4962    2.3006    0.0000 C   0  0  0  0  0  0  0  0  0  0  0  0
    2.0130    2.5242    0.0000 C   0  0  0  0  0  0  0  0  0  0  0  0
    1.0777    1.3515    0.0000 N   0  0  0  0  0  0  0  0  0  0  0  0
    1.7286    0.0000    0.0000 C   0  0  0  0  0  0  0  0  0  0  0  0
    1.0777   -1.3515    0.0000 C   0  0  0  0  0  0  0  0  0  0  0  0
   -0.3846   -1.6852    0.0000 C   0  0  0  0  0  0  0  0  0  0  0  0
   -0.7184   -3.1476    0.0000 C   0  0  0  0  0  0  0  0  0  0  0  0
   -1.5574   -0.7500    0.0000 N   0  0  0  0  0  0  0  0  0  0  0  0
   -1.5574    0.7500    0.0000 N   0  0  0  0  0  0  0  0  0  0  0  0
   -0.3846    1.6852    0.0000 N   0  0  0  0  0  0  0  0  0  0  0  0
    1.4650    3.9205    0.0000 C   0  0  0  0  0  0  0  0  0  0  0  0
    2.4002    5.0933    0.0000 C   0  0  0  0  0  0  0  0  0  0  0  0
  1  2  1  0
  2  3  2  0
  3  4  1  0
  4  5  2  0
  5  6  1  0
  6  7  1  0
  7  8  2  0
  8  9  1  0
  9 10  1  0
  9 11  2  0
 11 12  1  0
 12 13  2  0
  5 14  1  0
 14 15  2  0
 15  2  1  0
 13  6  1  0
M  END
>  <Title>  (822) 
idABFPgen7

$$$$

     RDKit          2D

 11 12  0  0  0  0  0  0  0  0999 V2000
   -1.7979    5.5335    0.0000 O   0  0  0  0  0  0  0  0  0  0  0  0
   -1.3344    4.1069    0.0000 C   0  0  0  0  0  0  0  0  0  0  0  0
    0.1520    3.9056    0.0000 C   0  0  0  0  0  0  0  0  0  0  0  0
    0.9214    2.6179    0.0000 C   0  0  0  0  0  0  0  0  0  0  0  0
    0.3943    1.2135    0.0000 C   0  0  0  0  0  0  0  0  0  0  0  0
    1.2760    0.0000    0.0000 C   0  0  0  0  0  0  0  0  0  0  0  0
    0.3943   -1.2135    0.0000 C   0  0  0  0  0  0  0  0  0  0  0  0
   -1.0323   -0.7500    0.0000 C   0  0  0  0  0  0  0  0  0  0  0  0
   -1.0323    0.7500    0.0000 C   0  0  0  0  0  0  0  0  0  0  0  0
   -2.2841    1.5763    0.0000 C   0  0  0  0  0  0  0  0  0  0  0  0
   -2.4186    3.0703    0.0000 C   0  0  0  0  0  0  0  0  0  0  0  0
  1  2  1  0
  2  3  2  0
  3  4  1  0
  4  5  2  0
  5  6  1  0
  6  7  2  0
  7  8  1  0
  8  9  2  0
  9 10  1  0
 10 11  1  0
 11  2  1  0
  9  5  1  0
M  END
>  <Title>  (823) 
idABFQgen7

$$$$

     RDKit          2D

 35 40  0  0  0  0  0  0  0  0999 V2000
    3.0000    0.0000    0.0000 C   0  0  0  0  0  0  0  0  0  0  0  0
    1.5000    0.0000    0.0000 C   0  0  0  0  0  0  0  0  0  0  0  0
    0.7500   -1.2990    0.0000 C   0  0  0  0  0  0  0  0  0  0  0  0
   -0.7500   -1.2990    0.0000 C   0  0  0  0  0  0  0  0  0  0  0  0
   -1.5000    0.0000    0.0000 C   0  0  0  0  0  0  0  0  0  0  0  0
   -3.0000    0.0000    0.0000 C   0  0  0  0  0  0  0  0  0  0  0  0
   -3.8817   -1.2135    0.0000 N   0  0  0  0  0  0  0  0  0  0  0  0
   -5.3083   -0.7500    0.0000 N   0  0  0  0  0  0  0  0  0  0  0  0
   -5.3083    0.7500    0.0000 N   0  0  0  0  0  0  0  0  0  0  0  0
   -3.8817    1.2135    0.0000 N   0  0  0  0  0  0  0  0  0  0  0  0
   -3.4182    2.6401    0.0000 C   0  0  0  0  0  0  0  0  0  0  0  0
   -1.9509    2.9520    0.0000 C   0  0  0  0  0  0  0  0  0  0  0  0
   -1.4874    4.3786    0.0000 C   0  0  0  0  0  0  0  0  0  0  0  0
   -2.4911    5.4933    0.0000 C   0  0  0  0  0  0  0  0  0  0  0  0
   -2.0276    6.9199    0.0000 C   0  0  0  0  0  0  0  0  0  0  0  0
   -2.9093    8.1334    0.0000 N   0  0  0  0  0  0  0  0  0  0  0  0
   -2.0276    9.3469    0.0000 N   0  0  0  0  0  0  0  0  0  0  0  0
   -0.6010    8.8834    0.0000 N   0  0  0  0  0  0  0  0  0  0  0  0
   -0.6010    7.3834    0.0000 N   0  0  0  0  0  0  0  0  0  0  0  0
    0.6125    6.5017    0.0000 C   0  0  0  0  0  0  0  0  0  0  0  0
    0.4557    5.0099    0.0000 C   0  0  0  0  0  0  0  0  0  0  0  0
    1.6693    4.1283    0.0000 C   0  0  0  0  0  0  0  0  0  0  0  0
    3.0396    4.7384    0.0000 C   0  0  0  0  0  0  0  0  0  0  0  0
    4.2531    3.8567    0.0000 C   0  0  0  0  0  0  0  0  0  0  0  0
    4.0963    2.3649    0.0000 C   0  0  0  0  0  0  0  0  0  0  0  0
    5.3098    1.4832    0.0000 C   0  0  0  0  0  0  0  0  0  0  0  0
    6.6802    2.0933    0.0000 C   0  0  0  0  0  0  0  0  0  0  0  0
    6.8370    3.5851    0.0000 C   0  0  0  0  0  0  0  0  0  0  0  0
    5.6234    4.4668    0.0000 C   0  0  0  0  0  0  0  0  0  0  0  0
    3.1964    6.2301    0.0000 C   0  0  0  0  0  0  0  0  0  0  0  0
    1.9829    7.1118    0.0000 C   0  0  0  0  0  0  0  0  0  0  0  0
   -3.9583    5.1814    0.0000 C   0  0  0  0  0  0  0  0  0  0  0  0
   -4.4218    3.7548    0.0000 C   0  0  0  0  0  0  0  0  0  0  0  0
   -0.7500    1.2990    0.0000 C   0  0  0  0  0  0  0  0  0  0  0  0
    0.7500    1.2990    0.0000 C   0  0  0  0  0  0  0  0  0  0  0  0
  1  2  1  0
  2  3  2  0
  3  4  1  0
  4  5  2  0
  5  6  1  0
  6  7  2  0
  7  8  1  0
  8  9  2  0
  9 10  1  0
 10 11  1  0
 11 12  2  0
 12 13  1  0
 13 14  2  0
 14 15  1  0
 15 16  2  0
 16 17  1  0
 17 18  2  0
 18 19  1  0
 19 20  1  0
 20 21  2  0
 21 22  1  0
 22 23  2  0
 23 24  1  0
 24 25  2  0
 25 26  1  0
 26 27  2  0
 27 28  1  0
 28 29  2  0
 23 30  1  0
 30 31  2  0
 14 32  1  0
 32 33  2  0
  5 34  1  0
 34 35  2  0
 35  2  1  0
 10  6  1  0
 33 11  1  0
 19 15  1  0
 31 20  1  0
 29 24  1  0
M  END
>  <Title>  (824) 
idABFRgen7

$$$$

     RDKit          2D

 44 49  0  0  0  0  0  0  0  0999 V2000
    3.7500    1.2990    0.0000 C   0  0  0  0  0  0  0  0  0  0  0  0
    3.0000    0.0000    0.0000 O   0  0  0  0  0  0  0  0  0  0  0  0
    1.5000    0.0000    0.0000 C   0  0  0  0  0  0  0  0  0  0  0  0
    0.7500    1.2990    0.0000 C   0  0  0  0  0  0  0  0  0  0  0  0
   -0.7500    1.2990    0.0000 C   0  0  0  0  0  0  0  0  0  0  0  0
   -1.5000    0.0000    0.0000 C   0  0  0  0  0  0  0  0  0  0  0  0
   -3.0000    0.0000    0.0000 C   0  0  0  0  0  0  0  0  0  0  0  0
   -3.8817   -1.2135    0.0000 N   0  0  0  0  0  0  0  0  0  0  0  0
   -5.3083   -0.7500    0.0000 N   0  0  0  0  0  0  0  0  0  0  0  0
   -5.3083    0.7500    0.0000 N   0  0  0  0  0  0  0  0  0  0  0  0
   -3.8817    1.2135    0.0000 N   0  0  0  0  0  0  0  0  0  0  0  0
   -3.4182    2.6401    0.0000 C   0  0  0  0  0  0  0  0  0  0  0  0
   -1.9509    2.9520    0.0000 C   0  0  0  0  0  0  0  0  0  0  0  0
   -1.4874    4.3786    0.0000 C   0  0  0  0  0  0  0  0  0  0  0  0
   -2.4911    5.4933    0.0000 C   0  0  0  0  0  0  0  0  0  0  0  0
   -2.0276    6.9199    0.0000 C   0  0  0  0  0  0  0  0  0  0  0  0
   -3.0313    8.0346    0.0000 O   0  0  0  0  0  0  0  0  0  0  0  0
   -0.5604    7.2317    0.0000 N   0  0  0  0  0  0  0  0  0  0  0  0
   -0.0968    8.6583    0.0000 C   0  0  0  0  0  0  0  0  0  0  0  0
   -0.9785    9.8718    0.0000 N   0  0  0  0  0  0  0  0  0  0  0  0
   -0.0968   11.0854    0.0000 N   0  0  0  0  0  0  0  0  0  0  0  0
    1.3298   10.6218    0.0000 N   0  0  0  0  0  0  0  0  0  0  0  0
    1.3298    9.1218    0.0000 N   0  0  0  0  0  0  0  0  0  0  0  0
    2.5433    8.2402    0.0000 C   0  0  0  0  0  0  0  0  0  0  0  0
    2.3865    6.7484    0.0000 C   0  0  0  0  0  0  0  0  0  0  0  0
    3.6000    5.8667    0.0000 C   0  0  0  0  0  0  0  0  0  0  0  0
    4.9703    6.4768    0.0000 C   0  0  0  0  0  0  0  0  0  0  0  0
    5.1271    7.9686    0.0000 C   0  0  0  0  0  0  0  0  0  0  0  0
    3.9136    8.8503    0.0000 C   0  0  0  0  0  0  0  0  0  0  0  0
   -3.9583    5.1814    0.0000 C   0  0  0  0  0  0  0  0  0  0  0  0
   -4.4218    3.7548    0.0000 C   0  0  0  0  0  0  0  0  0  0  0  0
   -5.8891    3.4430    0.0000 C   0  0  0  0  0  0  0  0  0  0  0  0
   -6.8928    4.5577    0.0000 C   0  0  0  0  0  0  0  0  0  0  0  0
   -8.3600    4.2458    0.0000 C   0  0  0  0  0  0  0  0  0  0  0  0
   -8.8235    2.8192    0.0000 C   0  0  0  0  0  0  0  0  0  0  0  0
  -10.2907    2.5074    0.0000 C   0  0  0  0  0  0  0  0  0  0  0  0
  -10.7543    1.0808    0.0000 O   0  0  0  0  0  0  0  0  0  0  0  0
  -11.2944    3.6221    0.0000 N   0  0  0  0  0  0  0  0  0  0  0  0
  -12.7617    3.3102    0.0000 O   0  0  0  0  0  0  0  0  0  0  0  0
   -7.8198    1.7045    0.0000 C   0  0  0  0  0  0  0  0  0  0  0  0
   -6.3526    2.0164    0.0000 C   0  0  0  0  0  0  0  0  0  0  0  0
   -0.7500   -1.2990    0.0000 C   0  0  0  0  0  0  0  0  0  0  0  0
   -1.5000   -2.5981    0.0000 O   0  0  0  0  0  0  0  0  0  0  0  0
    0.7500   -1.2990    0.0000 N   0  0  0  0  0  0  0  0  0  0  0  0
  1  2  1  0
  2  3  1  0
  3  4  2  0
  4  5  1  0
  5  6  2  0
  6  7  1  0
  7  8  2  0
  8  9  1  0
  9 10  2  0
 10 11  1  0
 11 12  1  0
 12 13  2  0
 13 14  1  0
 14 15  2  0
 15 16  1  0
 16 17  2  0
 16 18  1  0
 18 19  1  0
 19 20  2  0
 20 21  1  0
 21 22  2  0
 22 23  1  0
 23 24  1  0
 24 25  2  0
 25 26  1  0
 26 27  2  0
 27 28  1  0
 28 29  2  0
 15 30  1  0
 30 31  2  0
 31 32  1  0
 32 33  2  0
 33 34  1  0
 34 35  2  0
 35 36  1  0
 36 37  2  0
 36 38  1  0
 38 39  1  0
 35 40  1  0
 40 41  1  0
  6 42  1  0
 42 43  2  0
 42 44  1  0
 44  3  1  0
 11  7  1  0
 31 12  1  0
 41 32  1  0
 23 19  1  0
 29 24  1  0
M  END
>  <Title>  (825) 
idABFSgen7

$$$$

     RDKit          2D

 35 39  0  0  0  0  0  0  0  0999 V2000
    3.0000    0.0000    0.0000 C   0  0  0  0  0  0  0  0  0  0  0  0
    1.5000    0.0000    0.0000 C   0  0  0  0  0  0  0  0  0  0  0  0
    0.7500    1.2990    0.0000 C   0  0  0  0  0  0  0  0  0  0  0  0
   -0.7500    1.2990    0.0000 C   0  0  0  0  0  0  0  0  0  0  0  0
   -1.5000    0.0000    0.0000 C   0  0  0  0  0  0  0  0  0  0  0  0
   -3.0000    0.0000    0.0000 C   0  0  0  0  0  0  0  0  0  0  0  0
   -3.8817   -1.2135    0.0000 N   0  0  0  0  0  0  0  0  0  0  0  0
   -5.3083   -0.7500    0.0000 N   0  0  0  0  0  0  0  0  0  0  0  0
   -5.3083    0.7500    0.0000 N   0  0  0  0  0  0  0  0  0  0  0  0
   -3.8817    1.2135    0.0000 N   0  0  0  0  0  0  0  0  0  0  0  0
   -3.4182    2.6401    0.0000 C   0  0  0  0  0  0  0  0  0  0  0  0
   -1.9509    2.9520    0.0000 C   0  0  0  0  0  0  0  0  0  0  0  0
   -1.4874    4.3786    0.0000 C   0  0  0  0  0  0  0  0  0  0  0  0
   -2.4911    5.4933    0.0000 C   0  0  0  0  0  0  0  0  0  0  0  0
   -2.0276    6.9199    0.0000 C   0  0  0  0  0  0  0  0  0  0  0  0
   -3.0313    8.0346    0.0000 O   0  0  0  0  0  0  0  0  0  0  0  0
   -0.5604    7.2317    0.0000 N   0  0  0  0  0  0  0  0  0  0  0  0
   -0.0968    8.6583    0.0000 C   0  0  0  0  0  0  0  0  0  0  0  0
   -1.1005    9.7730    0.0000 O   0  0  0  0  0  0  0  0  0  0  0  0
    1.3704    8.9702    0.0000 C   0  0  0  0  0  0  0  0  0  0  0  0
    1.9805   10.3405    0.0000 N   0  0  0  0  0  0  0  0  0  0  0  0
    3.4723   10.1837    0.0000 N   0  0  0  0  0  0  0  0  0  0  0  0
    3.7841    8.7165    0.0000 N   0  0  0  0  0  0  0  0  0  0  0  0
    2.4851    7.9665    0.0000 N   0  0  0  0  0  0  0  0  0  0  0  0
    2.3283    6.4747    0.0000 C   0  0  0  0  0  0  0  0  0  0  0  0
    0.9580    5.8646    0.0000 C   0  0  0  0  0  0  0  0  0  0  0  0
    0.8012    4.3728    0.0000 C   0  0  0  0  0  0  0  0  0  0  0  0
    2.0147    3.4911    0.0000 C   0  0  0  0  0  0  0  0  0  0  0  0
    3.3850    4.1012    0.0000 C   0  0  0  0  0  0  0  0  0  0  0  0
    3.5418    5.5930    0.0000 C   0  0  0  0  0  0  0  0  0  0  0  0
   -3.9583    5.1814    0.0000 C   0  0  0  0  0  0  0  0  0  0  0  0
   -4.4218    3.7548    0.0000 C   0  0  0  0  0  0  0  0  0  0  0  0
   -0.7500   -1.2990    0.0000 C   0  0  0  0  0  0  0  0  0  0  0  0
   -1.5000   -2.5981    0.0000 O   0  0  0  0  0  0  0  0  0  0  0  0
    0.7500   -1.2990    0.0000 N   0  0  0  0  0  0  0  0  0  0  0  0
  1  2  1  0
  2  3  2  0
  3  4  1  0
  4  5  2  0
  5  6  1  0
  6  7  2  0
  7  8  1  0
  8  9  2  0
  9 10  1  0
 10 11  1  0
 11 12  2  0
 12 13  1  0
 13 14  2  0
 14 15  1  0
 15 16  2  0
 15 17  1  0
 17 18  1  0
 18 19  2  0
 18 20  1  0
 20 21  2  0
 21 22  1  0
 22 23  2  0
 23 24  1  0
 24 25  1  0
 25 26  2  0
 26 27  1  0
 27 28  2  0
 28 29  1  0
 29 30  2  0
 14 31  1  0
 31 32  2  0
  5 33  1  0
 33 34  2  0
 33 35  1  0
 35  2  1  0
 10  6  1  0
 32 11  1  0
 24 20  1  0
 30 25  1  0
M  END
>  <Title>  (826) 
idABFTgen7

$$$$

     RDKit          2D

 25 28  0  0  0  0  0  0  0  0999 V2000
    3.7500   -1.2990    0.0000 C   0  0  0  0  0  0  0  0  0  0  0  0
    3.0000    0.0000    0.0000 O   0  0  0  0  0  0  0  0  0  0  0  0
    1.5000    0.0000    0.0000 C   0  0  0  0  0  0  0  0  0  0  0  0
    0.7500   -1.2990    0.0000 C   0  0  0  0  0  0  0  0  0  0  0  0
   -0.7500   -1.2990    0.0000 C   0  0  0  0  0  0  0  0  0  0  0  0
   -1.5000    0.0000    0.0000 C   0  0  0  0  0  0  0  0  0  0  0  0
   -3.0000    0.0000    0.0000 C   0  0  0  0  0  0  0  0  0  0  0  0
   -3.8817   -1.2135    0.0000 N   0  0  0  0  0  0  0  0  0  0  0  0
   -5.3083   -0.7500    0.0000 N   0  0  0  0  0  0  0  0  0  0  0  0
   -5.3083    0.7500    0.0000 N   0  0  0  0  0  0  0  0  0  0  0  0
   -3.8817    1.2135    0.0000 N   0  0  0  0  0  0  0  0  0  0  0  0
   -3.4182    2.6401    0.0000 C   0  0  0  0  0  0  0  0  0  0  0  0
   -1.9509    2.9520    0.0000 C   0  0  0  0  0  0  0  0  0  0  0  0
   -1.4874    4.3786    0.0000 C   0  0  0  0  0  0  0  0  0  0  0  0
   -2.4911    5.4933    0.0000 C   0  0  0  0  0  0  0  0  0  0  0  0
   -2.0276    6.9199    0.0000 C   0  0  0  0  0  0  0  0  0  0  0  0
   -0.5604    7.2317    0.0000 C   0  0  0  0  0  0  0  0  0  0  0  0
   -0.0968    8.6583    0.0000 C   0  0  0  0  0  0  0  0  0  0  0  0
   -1.1005    9.7730    0.0000 C   0  0  0  0  0  0  0  0  0  0  0  0
   -2.5677    9.4612    0.0000 C   0  0  0  0  0  0  0  0  0  0  0  0
   -3.0313    8.0346    0.0000 C   0  0  0  0  0  0  0  0  0  0  0  0
   -3.9583    5.1814    0.0000 C   0  0  0  0  0  0  0  0  0  0  0  0
   -4.4218    3.7548    0.0000 C   0  0  0  0  0  0  0  0  0  0  0  0
   -0.7500    1.2990    0.0000 C   0  0  0  0  0  0  0  0  0  0  0  0
    0.7500    1.2990    0.0000 C   0  0  0  0  0  0  0  0  0  0  0  0
  1  2  1  0
  2  3  1  0
  3  4  2  0
  4  5  1  0
  5  6  2  0
  6  7  1  0
  7  8  2  0
  8  9  1  0
  9 10  2  0
 10 11  1  0
 11 12  1  0
 12 13  2  0
 13 14  1  0
 14 15  2  0
 15 16  1  0
 16 17  2  0
 17 18  1  0
 18 19  2  0
 19 20  1  0
 20 21  2  0
 15 22  1  0
 22 23  1  0
  6 24  1  0
 24 25  2  0
 25  3  1  0
 11  7  1  0
 23 12  1  0
 21 16  1  0
M  END
>  <Title>  (827) 
idABFUgen7

$$$$

     RDKit          2D

 30 34  0  0  0  0  0  0  0  0999 V2000
    3.0000    0.0000    0.0000 C   0  0  0  0  0  0  0  0  0  0  0  0
    1.5000    0.0000    0.0000 C   0  0  0  0  0  0  0  0  0  0  0  0
    0.7500   -1.2990    0.0000 C   0  0  0  0  0  0  0  0  0  0  0  0
   -0.7500   -1.2990    0.0000 C   0  0  0  0  0  0  0  0  0  0  0  0
   -1.5000    0.0000    0.0000 C   0  0  0  0  0  0  0  0  0  0  0  0
   -3.0000    0.0000    0.0000 C   0  0  0  0  0  0  0  0  0  0  0  0
   -3.8817   -1.2135    0.0000 N   0  0  0  0  0  0  0  0  0  0  0  0
   -5.3083   -0.7500    0.0000 N   0  0  0  0  0  0  0  0  0  0  0  0
   -5.3083    0.7500    0.0000 N   0  0  0  0  0  0  0  0  0  0  0  0
   -3.8817    1.2135    0.0000 N   0  0  0  0  0  0  0  0  0  0  0  0
   -3.4182    2.6401    0.0000 C   0  0  0  0  0  0  0  0  0  0  0  0
   -1.9509    2.9520    0.0000 C   0  0  0  0  0  0  0  0  0  0  0  0
   -1.4874    4.3786    0.0000 C   0  0  0  0  0  0  0  0  0  0  0  0
   -2.4911    5.4933    0.0000 C   0  0  0  0  0  0  0  0  0  0  0  0
   -2.0276    6.9199    0.0000 C   0  0  0  0  0  0  0  0  0  0  0  0
   -2.9093    8.1334    0.0000 N   0  0  0  0  0  0  0  0  0  0  0  0
   -2.0276    9.3469    0.0000 N   0  0  0  0  0  0  0  0  0  0  0  0
   -0.6010    8.8834    0.0000 N   0  0  0  0  0  0  0  0  0  0  0  0
   -0.6010    7.3834    0.0000 N   0  0  0  0  0  0  0  0  0  0  0  0
    0.6125    6.5017    0.0000 C   0  0  0  0  0  0  0  0  0  0  0  0
    0.4557    5.0099    0.0000 C   0  0  0  0  0  0  0  0  0  0  0  0
    1.6693    4.1283    0.0000 C   0  0  0  0  0  0  0  0  0  0  0  0
    3.0396    4.7384    0.0000 C   0  0  0  0  0  0  0  0  0  0  0  0
    3.1964    6.2301    0.0000 C   0  0  0  0  0  0  0  0  0  0  0  0
    1.9829    7.1118    0.0000 C   0  0  0  0  0  0  0  0  0  0  0  0
   -3.9583    5.1814    0.0000 C   0  0  0  0  0  0  0  0  0  0  0  0
   -4.4218    3.7548    0.0000 C   0  0  0  0  0  0  0  0  0  0  0  0
   -0.7500    1.2990    0.0000 C   0  0  0  0  0  0  0  0  0  0  0  0
    0.7500    1.2990    0.0000 C   0  0  0  0  0  0  0  0  0  0  0  0
    1.5000    2.5981    0.0000 C   0  0  0  0  0  0  0  0  0  0  0  0
  1  2  1  0
  2  3  2  0
  3  4  1  0
  4  5  2  0
  5  6  1  0
  6  7  2  0
  7  8  1  0
  8  9  2  0
  9 10  1  0
 10 11  1  0
 11 12  2  0
 12 13  1  0
 13 14  2  0
 14 15  1  0
 15 16  2  0
 16 17  1  0
 17 18  2  0
 18 19  1  0
 19 20  1  0
 20 21  2  0
 21 22  1  0
 22 23  2  0
 23 24  1  0
 24 25  2  0
 14 26  1  0
 26 27  2  0
  5 28  1  0
 28 29  2  0
 29 30  1  0
 29  2  1  0
 10  6  1  0
 27 11  1  0
 19 15  1  0
 25 20  1  0
M  END
>  <Title>  (828) 
idABFVgen7

$$$$

     RDKit          2D

  8  8  0  0  0  0  0  0  0  0999 V2000
    3.2286   -0.0000    0.0000 O   0  0  0  0  0  0  0  0  0  0  0  0
    1.7286    0.0000    0.0000 C   0  0  0  0  0  0  0  0  0  0  0  0
    1.0777    1.3515    0.0000 C   0  0  0  0  0  0  0  0  0  0  0  0
   -0.3846    1.6852    0.0000 C   0  0  0  0  0  0  0  0  0  0  0  0
   -1.5574    0.7500    0.0000 C   0  0  0  0  0  0  0  0  0  0  0  0
   -1.5574   -0.7500    0.0000 C   0  0  0  0  0  0  0  0  0  0  0  0
   -0.3846   -1.6852    0.0000 C   0  0  0  0  0  0  0  0  0  0  0  0
    1.0777   -1.3515    0.0000 C   0  0  0  0  0  0  0  0  0  0  0  0
  1  2  1  0
  2  3  1  0
  3  4  1  0
  4  5  1  0
  5  6  1  0
  6  7  1  0
  7  8  1  0
  8  2  1  0
M  END
>  <Title>  (829) 
idABFWgen7

$$$$

     RDKit          2D

 36 41  0  0  0  0  0  0  0  0999 V2000
    3.0000    0.0000    0.0000 O   0  0  0  0  0  0  0  0  0  0  0  0
    1.5000    0.0000    0.0000 C   0  0  0  0  0  0  0  0  0  0  0  0
    0.7500   -1.2990    0.0000 C   0  0  0  0  0  0  0  0  0  0  0  0
   -0.7500   -1.2990    0.0000 C   0  0  0  0  0  0  0  0  0  0  0  0
   -1.5000    0.0000    0.0000 C   0  0  0  0  0  0  0  0  0  0  0  0
   -3.0000    0.0000    0.0000 N   0  0  0  0  0  0  0  0  0  0  0  0
   -3.7500    1.2990    0.0000 N   0  0  0  0  0  0  0  0  0  0  0  0
   -5.2500    1.2990    0.0000 N   0  0  0  0  0  0  0  0  0  0  0  0
   -6.0000    0.0000    0.0000 N   0  0  0  0  0  0  0  0  0  0  0  0
   -5.2500   -1.2990    0.0000 N   0  0  0  0  0  0  0  0  0  0  0  0
   -3.7500   -1.2990    0.0000 N   0  0  0  0  0  0  0  0  0  0  0  0
   -3.0000   -2.5981    0.0000 C   0  0  0  0  0  0  0  0  0  0  0  0
   -3.7500   -3.8971    0.0000 C   0  0  0  0  0  0  0  0  0  0  0  0
   -3.0000   -5.1962    0.0000 C   0  0  0  0  0  0  0  0  0  0  0  0
   -1.5000   -5.1962    0.0000 C   0  0  0  0  0  0  0  0  0  0  0  0
   -0.7500   -6.4952    0.0000 C   0  0  0  0  0  0  0  0  0  0  0  0
    0.7418   -6.6520    0.0000 N   0  0  0  0  0  0  0  0  0  0  0  0
    1.0537   -8.1192    0.0000 N   0  0  0  0  0  0  0  0  0  0  0  0
   -0.2454   -8.8692    0.0000 N   0  0  0  0  0  0  0  0  0  0  0  0
   -1.3601   -7.8655    0.0000 N   0  0  0  0  0  0  0  0  0  0  0  0
   -2.8273   -8.1774    0.0000 C   0  0  0  0  0  0  0  0  0  0  0  0
   -3.8310   -7.0627    0.0000 C   0  0  0  0  0  0  0  0  0  0  0  0
   -5.2982   -7.3745    0.0000 C   0  0  0  0  0  0  0  0  0  0  0  0
   -5.7618   -8.8011    0.0000 C   0  0  0  0  0  0  0  0  0  0  0  0
   -7.2290   -9.1130    0.0000 C   0  0  0  0  0  0  0  0  0  0  0  0
   -8.2327   -7.9983    0.0000 C   0  0  0  0  0  0  0  0  0  0  0  0
   -9.6999   -8.3101    0.0000 C   0  0  0  0  0  0  0  0  0  0  0  0
  -10.1634   -9.7367    0.0000 C   0  0  0  0  0  0  0  0  0  0  0  0
   -9.1597  -10.8514    0.0000 C   0  0  0  0  0  0  0  0  0  0  0  0
   -7.6925  -10.5396    0.0000 N   0  0  0  0  0  0  0  0  0  0  0  0
   -4.7581   -9.9158    0.0000 C   0  0  0  0  0  0  0  0  0  0  0  0
   -3.2909   -9.6040    0.0000 C   0  0  0  0  0  0  0  0  0  0  0  0
   -0.7500   -3.8971    0.0000 C   0  0  0  0  0  0  0  0  0  0  0  0
   -1.5000   -2.5981    0.0000 C   0  0  0  0  0  0  0  0  0  0  0  0
   -0.7500    1.2990    0.0000 C   0  0  0  0  0  0  0  0  0  0  0  0
    0.7500    1.2990    0.0000 C   0  0  0  0  0  0  0  0  0  0  0  0
  1  2  1  0
  2  3  2  0
  3  4  1  0
  4  5  2  0
  5  6  1  0
  6  7  1  0
  7  8  2  0
  8  9  1  0
  9 10  2  0
 10 11  1  0
 11 12  1  0
 12 13  2  0
 13 14  1  0
 14 15  2  0
 15 16  1  0
 16 17  2  0
 17 18  1  0
 18 19  2  0
 19 20  1  0
 20 21  1  0
 21 22  2  0
 22 23  1  0
 23 24  2  0
 24 25  1  0
 25 26  2  0
 26 27  1  0
 27 28  2  0
 28 29  1  0
 29 30  2  0
 24 31  1  0
 31 32  2  0
 15 33  1  0
 33 34  2  0
  5 35  1  0
 35 36  2  0
 36  2  1  0
 11  6  1  0
 34 12  1  0
 20 16  1  0
 32 21  1  0
 30 25  1  0
M  END
>  <Title>  (830) 
idABFXgen7

$$$$

     RDKit          2D

 31 34  0  0  0  0  0  0  0  0999 V2000
    3.0000    0.0000    0.0000 C   0  0  0  0  0  0  0  0  0  0  0  0
    1.5000    0.0000    0.0000 C   0  0  0  0  0  0  0  0  0  0  0  0
    0.7500   -1.2990    0.0000 C   0  0  0  0  0  0  0  0  0  0  0  0
   -0.7500   -1.2990    0.0000 C   0  0  0  0  0  0  0  0  0  0  0  0
   -1.5000    0.0000    0.0000 C   0  0  0  0  0  0  0  0  0  0  0  0
   -3.0000    0.0000    0.0000 C   0  0  0  0  0  0  0  0  0  0  0  0
   -3.7500   -1.2990    0.0000 O   0  0  0  0  0  0  0  0  0  0  0  0
   -3.7500    1.2990    0.0000 N   0  0  0  0  0  0  0  0  0  0  0  0
   -5.2500    1.2990    0.0000 C   0  0  0  0  0  0  0  0  0  0  0  0
   -6.1317    0.0855    0.0000 N   0  0  0  0  0  0  0  0  0  0  0  0
   -7.5583    0.5490    0.0000 N   0  0  0  0  0  0  0  0  0  0  0  0
   -7.5583    2.0490    0.0000 N   0  0  0  0  0  0  0  0  0  0  0  0
   -6.1317    2.5126    0.0000 N   0  0  0  0  0  0  0  0  0  0  0  0
   -5.6682    3.9391    0.0000 C   0  0  0  0  0  0  0  0  0  0  0  0
   -6.5498    5.1527    0.0000 C   0  0  0  0  0  0  0  0  0  0  0  0
   -5.6682    6.3662    0.0000 C   0  0  0  0  0  0  0  0  0  0  0  0
   -4.2416    5.9027    0.0000 C   0  0  0  0  0  0  0  0  0  0  0  0
   -3.0280    6.7844    0.0000 C   0  0  0  0  0  0  0  0  0  0  0  0
   -3.1848    8.2761    0.0000 O   0  0  0  0  0  0  0  0  0  0  0  0
   -1.6577    6.1742    0.0000 N   0  0  0  0  0  0  0  0  0  0  0  0
   -0.4442    7.0559    0.0000 C   0  0  0  0  0  0  0  0  0  0  0  0
    0.9261    6.4458    0.0000 C   0  0  0  0  0  0  0  0  0  0  0  0
    2.1396    7.3275    0.0000 C   0  0  0  0  0  0  0  0  0  0  0  0
    1.9829    8.8193    0.0000 C   0  0  0  0  0  0  0  0  0  0  0  0
    0.6125    9.4294    0.0000 C   0  0  0  0  0  0  0  0  0  0  0  0
   -0.6010    8.5477    0.0000 C   0  0  0  0  0  0  0  0  0  0  0  0
   -4.2416    4.4027    0.0000 C   0  0  0  0  0  0  0  0  0  0  0  0
   -3.0280    3.5210    0.0000 O   0  0  0  0  0  0  0  0  0  0  0  0
   -0.7500    1.2990    0.0000 C   0  0  0  0  0  0  0  0  0  0  0  0
   -1.5000    2.5981    0.0000 O   0  0  0  0  0  0  0  0  0  0  0  0
    0.7500    1.2990    0.0000 O   0  0  0  0  0  0  0  0  0  0  0  0
  1  2  1  0
  2  3  2  0
  3  4  1  0
  4  5  2  0
  5  6  1  0
  6  7  2  0
  6  8  1  0
  8  9  1  0
  9 10  2  0
 10 11  1  0
 11 12  2  0
 12 13  1  0
 13 14  1  0
 14 15  2  0
 15 16  1  0
 16 17  2  0
 17 18  1  0
 18 19  2  0
 18 20  1  0
 20 21  1  0
 21 22  2  0
 22 23  1  0
 23 24  2  0
 24 25  1  0
 25 26  2  0
 17 27  1  0
 27 28  2  0
  5 29  1  0
 29 30  2  0
 29 31  1  0
 31  2  1  0
 13  9  1  0
 27 14  1  0
 26 21  1  0
M  END
>  <Title>  (831) 
idABFYgen7

$$$$

     RDKit          2D

 23 25  0  0  0  0  0  0  0  0999 V2000
    3.0000    0.0000    0.0000 C   0  0  0  0  0  0  0  0  0  0  0  0
    1.5000    0.0000    0.0000 C   0  0  0  0  0  0  0  0  0  0  0  0
    0.7500   -1.2990    0.0000 C   0  0  0  0  0  0  0  0  0  0  0  0
   -0.7500   -1.2990    0.0000 C   0  0  0  0  0  0  0  0  0  0  0  0
   -1.5000    0.0000    0.0000 C   0  0  0  0  0  0  0  0  0  0  0  0
   -3.0000    0.0000    0.0000 N   0  0  0  0  0  0  0  0  0  0  0  0
   -3.7500    1.2990    0.0000 N   0  0  0  0  0  0  0  0  0  0  0  0
   -5.2500    1.2990    0.0000 N   0  0  0  0  0  0  0  0  0  0  0  0
   -6.0000    0.0000    0.0000 N   0  0  0  0  0  0  0  0  0  0  0  0
   -5.2500   -1.2990    0.0000 N   0  0  0  0  0  0  0  0  0  0  0  0
   -3.7500   -1.2990    0.0000 N   0  0  0  0  0  0  0  0  0  0  0  0
   -3.0000   -2.5981    0.0000 C   0  0  0  0  0  0  0  0  0  0  0  0
   -3.7500   -3.8971    0.0000 C   0  0  0  0  0  0  0  0  0  0  0  0
   -3.0000   -5.1962    0.0000 C   0  0  0  0  0  0  0  0  0  0  0  0
   -1.5000   -5.1962    0.0000 C   0  0  0  0  0  0  0  0  0  0  0  0
   -0.7500   -6.4952    0.0000 C   0  0  0  0  0  0  0  0  0  0  0  0
    0.7500   -6.4952    0.0000 O   0  0  0  0  0  0  0  0  0  0  0  0
   -1.5000   -7.7942    0.0000 N   0  0  0  0  0  0  0  0  0  0  0  0
   -0.7500   -9.0933    0.0000 O   0  0  0  0  0  0  0  0  0  0  0  0
   -0.7500   -3.8971    0.0000 C   0  0  0  0  0  0  0  0  0  0  0  0
   -1.5000   -2.5981    0.0000 C   0  0  0  0  0  0  0  0  0  0  0  0
   -0.7500    1.2990    0.0000 C   0  0  0  0  0  0  0  0  0  0  0  0
    0.7500    1.2990    0.0000 C   0  0  0  0  0  0  0  0  0  0  0  0
  1  2  1  0
  2  3  2  0
  3  4  1  0
  4  5  2  0
  5  6  1  0
  6  7  1  0
  7  8  2  0
  8  9  1  0
  9 10  2  0
 10 11  1  0
 11 12  1  0
 12 13  2  0
 13 14  1  0
 14 15  2  0
 15 16  1  0
 16 17  2  0
 16 18  1  0
 18 19  1  0
 15 20  1  0
 20 21  1  0
  5 22  1  0
 22 23  1  0
 23  2  1  0
 11  6  1  0
 21 12  1  0
M  END
>  <Title>  (832) 
idABFZgen7

$$$$

     RDKit          2D

 50 57  0  0  0  0  0  0  0  0999 V2000
   -8.2500   -6.4952    0.0000 C   0  0  0  0  0  0  0  0  0  0  0  0
   -7.5000   -5.1962    0.0000 C   0  0  0  0  0  0  0  0  0  0  0  0
   -6.0000   -5.1962    0.0000 C   0  0  0  0  0  0  0  0  0  0  0  0
   -5.2500   -3.8971    0.0000 C   0  0  0  0  0  0  0  0  0  0  0  0
   -6.0000   -2.5981    0.0000 C   0  0  0  0  0  0  0  0  0  0  0  0
   -5.2500   -1.2990    0.0000 N   0  0  0  0  0  0  0  0  0  0  0  0
   -6.0000    0.0000    0.0000 N   0  0  0  0  0  0  0  0  0  0  0  0
   -5.2500    1.2990    0.0000 N   0  0  0  0  0  0  0  0  0  0  0  0
   -3.7500    1.2990    0.0000 N   0  0  0  0  0  0  0  0  0  0  0  0
   -3.0000    0.0000    0.0000 N   0  0  0  0  0  0  0  0  0  0  0  0
   -3.7500   -1.2990    0.0000 N   0  0  0  0  0  0  0  0  0  0  0  0
   -3.0000   -2.5981    0.0000 C   0  0  0  0  0  0  0  0  0  0  0  0
   -3.7500   -3.8971    0.0000 C   0  0  0  0  0  0  0  0  0  0  0  0
   -3.0000   -5.1962    0.0000 C   0  0  0  0  0  0  0  0  0  0  0  0
   -3.7500   -6.4952    0.0000 C   0  0  0  0  0  0  0  0  0  0  0  0
   -5.2500   -6.4952    0.0000 C   0  0  0  0  0  0  0  0  0  0  0  0
   -6.0000   -7.7942    0.0000 C   0  0  0  0  0  0  0  0  0  0  0  0
   -5.2500   -9.0933    0.0000 C   0  0  0  0  0  0  0  0  0  0  0  0
   -6.0000  -10.3923    0.0000 C   0  0  0  0  0  0  0  0  0  0  0  0
   -7.5000  -10.3923    0.0000 C   0  0  0  0  0  0  0  0  0  0  0  0
   -8.2500  -11.6913    0.0000 C   0  0  0  0  0  0  0  0  0  0  0  0
   -7.5000  -12.9904    0.0000 C   0  0  0  0  0  0  0  0  0  0  0  0
   -6.0000  -12.9904    0.0000 C   0  0  0  0  0  0  0  0  0  0  0  0
   -5.2500  -11.6913    0.0000 C   0  0  0  0  0  0  0  0  0  0  0  0
   -3.7500   -9.0933    0.0000 C   0  0  0  0  0  0  0  0  0  0  0  0
   -3.0000   -7.7942    0.0000 C   0  0  0  0  0  0  0  0  0  0  0  0
   -1.5000   -7.7942    0.0000 C   0  0  0  0  0  0  0  0  0  0  0  0
   -0.7500   -9.0933    0.0000 C   0  0  0  0  0  0  0  0  0  0  0  0
    0.7500   -9.0933    0.0000 C   0  0  0  0  0  0  0  0  0  0  0  0
    1.5000   -7.7942    0.0000 C   0  0  0  0  0  0  0  0  0  0  0  0
    0.7500   -6.4952    0.0000 C   0  0  0  0  0  0  0  0  0  0  0  0
   -0.7500   -6.4952    0.0000 C   0  0  0  0  0  0  0  0  0  0  0  0
   -1.5000   -5.1962    0.0000 C   0  0  0  0  0  0  0  0  0  0  0  0
   -0.7500   -3.8971    0.0000 C   0  0  0  0  0  0  0  0  0  0  0  0
   -1.5000   -2.5981    0.0000 C   0  0  0  0  0  0  0  0  0  0  0  0
   -0.7500   -1.2990    0.0000 N   0  0  0  0  0  0  0  0  0  0  0  0
   -1.3601    0.0713    0.0000 N   0  0  0  0  0  0  0  0  0  0  0  0
   -0.2454    1.0750    0.0000 N   0  0  0  0  0  0  0  0  0  0  0  0
    1.0537    0.3250    0.0000 N   0  0  0  0  0  0  0  0  0  0  0  0
    0.7418   -1.1422    0.0000 C   0  0  0  0  0  0  0  0  0  0  0  0
    1.7455   -2.2570    0.0000 C   0  0  0  0  0  0  0  0  0  0  0  0
    1.2820   -3.6835    0.0000 C   0  0  0  0  0  0  0  0  0  0  0  0
    2.2856   -4.7983    0.0000 C   0  0  0  0  0  0  0  0  0  0  0  0
    3.7529   -4.4864    0.0000 C   0  0  0  0  0  0  0  0  0  0  0  0
    4.7566   -5.6011    0.0000 C   0  0  0  0  0  0  0  0  0  0  0  0
    4.2164   -3.0598    0.0000 N   0  0  0  0  0  0  0  0  0  0  0  0
    3.2127   -1.9451    0.0000 C   0  0  0  0  0  0  0  0  0  0  0  0
    3.6762   -0.5185    0.0000 O   0  0  0  0  0  0  0  0  0  0  0  0
   -7.5000   -2.5981    0.0000 C   0  0  0  0  0  0  0  0  0  0  0  0
   -8.2500   -3.8971    0.0000 C   0  0  0  0  0  0  0  0  0  0  0  0
  1  2  1  0
  2  3  2  0
  3  4  1  0
  4  5  2  0
  5  6  1  0
  6  7  1  0
  7  8  2  0
  8  9  1  0
  9 10  2  0
 10 11  1  0
 11 12  1  0
 12 13  2  0
 13 14  1  0
 14 15  1  0
 15 16  2  0
 16 17  1  0
 17 18  2  0
 18 19  1  0
 19 20  2  0
 20 21  1  0
 21 22  2  0
 22 23  1  0
 23 24  2  0
 18 25  1  0
 25 26  2  0
 26 27  1  0
 27 28  2  0
 28 29  1  0
 29 30  2  0
 30 31  1  0
 31 32  2  0
 14 33  2  0
 33 34  1  0
 34 35  2  0
 35 36  1  0
 36 37  1  0
 37 38  2  0
 38 39  1  0
 39 40  2  0
 40 41  1  0
 41 42  2  0
 42 43  1  0
 43 44  2  0
 44 45  1  0
 44 46  1  0
 46 47  1  0
 47 48  2  0
  5 49  1  0
 49 50  2  0
 50  2  1  0
 11  6  1  0
 35 12  1  0
 40 36  1  0
 47 41  1  0
 26 15  1  0
 32 27  1  0
 24 19  1  0
M  END
>  <Title>  (833) 
idABGAgen7

$$$$

     RDKit          2D

 45 51  0  0  0  0  0  0  0  0999 V2000
    3.0000    0.0000    0.0000 C   0  0  0  0  0  0  0  0  0  0  0  0
    1.5000    0.0000    0.0000 C   0  0  0  0  0  0  0  0  0  0  0  0
    0.7500   -1.2990    0.0000 C   0  0  0  0  0  0  0  0  0  0  0  0
   -0.7500   -1.2990    0.0000 C   0  0  0  0  0  0  0  0  0  0  0  0
   -1.5000    0.0000    0.0000 C   0  0  0  0  0  0  0  0  0  0  0  0
   -3.0000    0.0000    0.0000 C   0  0  0  0  0  0  0  0  0  0  0  0
   -3.7500   -1.2990    0.0000 O   0  0  0  0  0  0  0  0  0  0  0  0
   -3.7500    1.2990    0.0000 N   0  0  0  0  0  0  0  0  0  0  0  0
   -5.2500    1.2990    0.0000 C   0  0  0  0  0  0  0  0  0  0  0  0
   -6.1317    0.0855    0.0000 N   0  0  0  0  0  0  0  0  0  0  0  0
   -7.5583    0.5490    0.0000 N   0  0  0  0  0  0  0  0  0  0  0  0
   -7.5583    2.0490    0.0000 N   0  0  0  0  0  0  0  0  0  0  0  0
   -6.1317    2.5126    0.0000 N   0  0  0  0  0  0  0  0  0  0  0  0
   -5.6682    3.9391    0.0000 C   0  0  0  0  0  0  0  0  0  0  0  0
   -4.2009    4.2510    0.0000 C   0  0  0  0  0  0  0  0  0  0  0  0
   -3.7374    5.6776    0.0000 C   0  0  0  0  0  0  0  0  0  0  0  0
   -4.7411    6.7923    0.0000 C   0  0  0  0  0  0  0  0  0  0  0  0
   -4.2776    8.2189    0.0000 C   0  0  0  0  0  0  0  0  0  0  0  0
   -2.8104    8.5308    0.0000 C   0  0  0  0  0  0  0  0  0  0  0  0
   -2.3468    9.9574    0.0000 C   0  0  0  0  0  0  0  0  0  0  0  0
   -3.3505   11.0721    0.0000 C   0  0  0  0  0  0  0  0  0  0  0  0
   -4.8177   10.7602    0.0000 C   0  0  0  0  0  0  0  0  0  0  0  0
   -5.2813    9.3336    0.0000 C   0  0  0  0  0  0  0  0  0  0  0  0
   -6.2083    6.4805    0.0000 C   0  0  0  0  0  0  0  0  0  0  0  0
   -6.6718    5.0539    0.0000 C   0  0  0  0  0  0  0  0  0  0  0  0
   -8.1391    4.7420    0.0000 C   0  0  0  0  0  0  0  0  0  0  0  0
   -8.7492    3.3717    0.0000 N   0  0  0  0  0  0  0  0  0  0  0  0
  -10.2410    3.5285    0.0000 N   0  0  0  0  0  0  0  0  0  0  0  0
  -10.5528    4.9957    0.0000 N   0  0  0  0  0  0  0  0  0  0  0  0
   -9.2538    5.7457    0.0000 N   0  0  0  0  0  0  0  0  0  0  0  0
   -9.0970    7.2375    0.0000 C   0  0  0  0  0  0  0  0  0  0  0  0
   -7.7980    7.9875    0.0000 C   0  0  0  0  0  0  0  0  0  0  0  0
   -8.1098    9.4547    0.0000 C   0  0  0  0  0  0  0  0  0  0  0  0
   -9.6016    9.6115    0.0000 C   0  0  0  0  0  0  0  0  0  0  0  0
  -10.3516   10.9105    0.0000 C   0  0  0  0  0  0  0  0  0  0  0  0
   -9.6016   12.2096    0.0000 C   0  0  0  0  0  0  0  0  0  0  0  0
  -10.3516   13.5086    0.0000 C   0  0  0  0  0  0  0  0  0  0  0  0
  -11.8516   13.5086    0.0000 C   0  0  0  0  0  0  0  0  0  0  0  0
  -12.6016   12.2096    0.0000 C   0  0  0  0  0  0  0  0  0  0  0  0
  -11.8516   10.9105    0.0000 C   0  0  0  0  0  0  0  0  0  0  0  0
  -10.2117    8.2412    0.0000 C   0  0  0  0  0  0  0  0  0  0  0  0
  -11.6789    7.9293    0.0000 O   0  0  0  0  0  0  0  0  0  0  0  0
   -0.7500    1.2990    0.0000 C   0  0  0  0  0  0  0  0  0  0  0  0
   -1.5000    2.5981    0.0000 O   0  0  0  0  0  0  0  0  0  0  0  0
    0.7500    1.2990    0.0000 N   0  0  0  0  0  0  0  0  0  0  0  0
  1  2  1  0
  2  3  2  0
  3  4  1  0
  4  5  2  0
  5  6  1  0
  6  7  2  0
  6  8  1  0
  8  9  1  0
  9 10  2  0
 10 11  1  0
 11 12  2  0
 12 13  1  0
 13 14  1  0
 14 15  2  0
 15 16  1  0
 16 17  2  0
 17 18  1  0
 18 19  2  0
 19 20  1  0
 20 21  2  0
 21 22  1  0
 22 23  2  0
 17 24  1  0
 24 25  2  0
 25 26  1  0
 26 27  2  0
 27 28  1  0
 28 29  2  0
 29 30  1  0
 30 31  1  0
 31 32  2  0
 32 33  1  0
 33 34  2  0
 34 35  1  0
 35 36  2  0
 36 37  1  0
 37 38  2  0
 38 39  1  0
 39 40  2  0
 34 41  1  0
 41 42  2  0
  5 43  1  0
 43 44  2  0
 43 45  1  0
 45  2  1  0
 13  9  1  0
 25 14  1  0
 30 26  1  0
 41 31  1  0
 23 18  1  0
 40 35  1  0
M  END
>  <Title>  (834) 
idABGBgen7

$$$$

     RDKit          2D

 35 39  0  0  0  0  0  0  0  0999 V2000
    3.7500   -1.2990    0.0000 C   0  0  0  0  0  0  0  0  0  0  0  0
    3.0000    0.0000    0.0000 O   0  0  0  0  0  0  0  0  0  0  0  0
    1.5000    0.0000    0.0000 C   0  0  0  0  0  0  0  0  0  0  0  0
    0.7500   -1.2990    0.0000 C   0  0  0  0  0  0  0  0  0  0  0  0
   -0.7500   -1.2990    0.0000 C   0  0  0  0  0  0  0  0  0  0  0  0
   -1.5000    0.0000    0.0000 C   0  0  0  0  0  0  0  0  0  0  0  0
   -3.0000    0.0000    0.0000 C   0  0  0  0  0  0  0  0  0  0  0  0
   -3.7500   -1.2990    0.0000 O   0  0  0  0  0  0  0  0  0  0  0  0
   -3.7500    1.2990    0.0000 N   0  0  0  0  0  0  0  0  0  0  0  0
   -5.2500    1.2990    0.0000 C   0  0  0  0  0  0  0  0  0  0  0  0
   -6.1317    0.0855    0.0000 N   0  0  0  0  0  0  0  0  0  0  0  0
   -7.5583    0.5490    0.0000 N   0  0  0  0  0  0  0  0  0  0  0  0
   -7.5583    2.0490    0.0000 N   0  0  0  0  0  0  0  0  0  0  0  0
   -6.1317    2.5126    0.0000 N   0  0  0  0  0  0  0  0  0  0  0  0
   -5.6682    3.9391    0.0000 C   0  0  0  0  0  0  0  0  0  0  0  0
   -4.2009    4.2510    0.0000 C   0  0  0  0  0  0  0  0  0  0  0  0
   -3.7374    5.6776    0.0000 C   0  0  0  0  0  0  0  0  0  0  0  0
   -4.7411    6.7923    0.0000 C   0  0  0  0  0  0  0  0  0  0  0  0
   -4.2776    8.2189    0.0000 C   0  0  0  0  0  0  0  0  0  0  0  0
   -2.8104    8.5308    0.0000 C   0  0  0  0  0  0  0  0  0  0  0  0
   -2.3468    9.9574    0.0000 C   0  0  0  0  0  0  0  0  0  0  0  0
   -3.3505   11.0721    0.0000 C   0  0  0  0  0  0  0  0  0  0  0  0
   -2.8870   12.4987    0.0000 C   0  0  0  0  0  0  0  0  0  0  0  0
   -1.4198   12.8105    0.0000 C   0  0  0  0  0  0  0  0  0  0  0  0
   -0.9563   14.2371    0.0000 C   0  0  0  0  0  0  0  0  0  0  0  0
   -1.9599   15.3518    0.0000 C   0  0  0  0  0  0  0  0  0  0  0  0
   -3.4272   15.0400    0.0000 C   0  0  0  0  0  0  0  0  0  0  0  0
   -3.8907   13.6134    0.0000 C   0  0  0  0  0  0  0  0  0  0  0  0
   -4.8177   10.7602    0.0000 C   0  0  0  0  0  0  0  0  0  0  0  0
   -5.2813    9.3336    0.0000 C   0  0  0  0  0  0  0  0  0  0  0  0
   -6.2083    6.4805    0.0000 C   0  0  0  0  0  0  0  0  0  0  0  0
   -6.6718    5.0539    0.0000 C   0  0  0  0  0  0  0  0  0  0  0  0
   -0.7500    1.2990    0.0000 C   0  0  0  0  0  0  0  0  0  0  0  0
   -1.5000    2.5981    0.0000 O   0  0  0  0  0  0  0  0  0  0  0  0
    0.7500    1.2990    0.0000 N   0  0  0  0  0  0  0  0  0  0  0  0
  1  2  1  0
  2  3  1  0
  3  4  2  0
  4  5  1  0
  5  6  2  0
  6  7  1  0
  7  8  2  0
  7  9  1  0
  9 10  1  0
 10 11  2  0
 11 12  1  0
 12 13  2  0
 13 14  1  0
 14 15  1  0
 15 16  2  0
 16 17  1  0
 17 18  2  0
 18 19  1  0
 19 20  2  0
 20 21  1  0
 21 22  2  0
 22 23  1  0
 23 24  2  0
 24 25  1  0
 25 26  2  0
 26 27  1  0
 27 28  2  0
 22 29  1  0
 29 30  2  0
 18 31  1  0
 31 32  2  0
  6 33  1  0
 33 34  2  0
 33 35  1  0
 35  3  1  0
 14 10  1  0
 32 15  1  0
 30 19  1  0
 28 23  1  0
M  END
>  <Title>  (835) 
idABGCgen7

$$$$

     RDKit          2D

 29 32  0  0  0  0  0  0  0  0999 V2000
    3.0000    0.0000    0.0000 C   0  0  0  0  0  0  0  0  0  0  0  0
    1.5000    0.0000    0.0000 C   0  0  0  0  0  0  0  0  0  0  0  0
    0.7500   -1.2990    0.0000 C   0  0  0  0  0  0  0  0  0  0  0  0
   -0.7500   -1.2990    0.0000 C   0  0  0  0  0  0  0  0  0  0  0  0
   -1.5000    0.0000    0.0000 C   0  0  0  0  0  0  0  0  0  0  0  0
   -3.0000    0.0000    0.0000 C   0  0  0  0  0  0  0  0  0  0  0  0
   -3.7500   -1.2990    0.0000 O   0  0  0  0  0  0  0  0  0  0  0  0
   -3.7500    1.2990    0.0000 O   0  0  0  0  0  0  0  0  0  0  0  0
   -5.2500    1.2990    0.0000 C   0  0  0  0  0  0  0  0  0  0  0  0
   -6.1317    0.0855    0.0000 N   0  0  0  0  0  0  0  0  0  0  0  0
   -7.5583    0.5490    0.0000 N   0  0  0  0  0  0  0  0  0  0  0  0
   -7.5583    2.0490    0.0000 N   0  0  0  0  0  0  0  0  0  0  0  0
   -6.1317    2.5126    0.0000 N   0  0  0  0  0  0  0  0  0  0  0  0
   -5.6682    3.9391    0.0000 C   0  0  0  0  0  0  0  0  0  0  0  0
   -4.2009    4.2510    0.0000 C   0  0  0  0  0  0  0  0  0  0  0  0
   -3.7374    5.6776    0.0000 C   0  0  0  0  0  0  0  0  0  0  0  0
   -4.7411    6.7923    0.0000 C   0  0  0  0  0  0  0  0  0  0  0  0
   -4.2776    8.2189    0.0000 C   0  0  0  0  0  0  0  0  0  0  0  0
   -2.8104    8.5308    0.0000 C   0  0  0  0  0  0  0  0  0  0  0  0
   -2.3468    9.9574    0.0000 C   0  0  0  0  0  0  0  0  0  0  0  0
   -3.3505   11.0721    0.0000 C   0  0  0  0  0  0  0  0  0  0  0  0
   -4.8177   10.7602    0.0000 C   0  0  0  0  0  0  0  0  0  0  0  0
   -5.2813    9.3336    0.0000 C   0  0  0  0  0  0  0  0  0  0  0  0
   -6.2083    6.4805    0.0000 C   0  0  0  0  0  0  0  0  0  0  0  0
   -7.2120    7.5952    0.0000 O   0  0  0  0  0  0  0  0  0  0  0  0
   -6.6718    5.0539    0.0000 N   0  0  0  0  0  0  0  0  0  0  0  0
   -0.7500    1.2990    0.0000 C   0  0  0  0  0  0  0  0  0  0  0  0
   -1.5000    2.5981    0.0000 O   0  0  0  0  0  0  0  0  0  0  0  0
    0.7500    1.2990    0.0000 N   0  0  0  0  0  0  0  0  0  0  0  0
  1  2  1  0
  2  3  2  0
  3  4  1  0
  4  5  2  0
  5  6  1  0
  6  7  2  0
  6  8  1  0
  8  9  1  0
  9 10  2  0
 10 11  1  0
 11 12  2  0
 12 13  1  0
 13 14  1  0
 14 15  2  0
 15 16  1  0
 16 17  2  0
 17 18  1  0
 18 19  2  0
 19 20  1  0
 20 21  2  0
 21 22  1  0
 22 23  2  0
 17 24  1  0
 24 25  2  0
 24 26  1  0
  5 27  1  0
 27 28  2  0
 27 29  1  0
 29  2  1  0
 13  9  1  0
 26 14  1  0
 23 18  1  0
M  END
>  <Title>  (836) 
idABGDgen7

$$$$

     RDKit          2D

 29 32  0  0  0  0  0  0  0  0999 V2000
    3.0000    0.0000    0.0000 C   0  0  0  0  0  0  0  0  0  0  0  0
    1.5000    0.0000    0.0000 C   0  0  0  0  0  0  0  0  0  0  0  0
    0.7500    1.2990    0.0000 C   0  0  0  0  0  0  0  0  0  0  0  0
   -0.7500    1.2990    0.0000 C   0  0  0  0  0  0  0  0  0  0  0  0
   -1.5000    0.0000    0.0000 C   0  0  0  0  0  0  0  0  0  0  0  0
   -3.0000    0.0000    0.0000 C   0  0  0  0  0  0  0  0  0  0  0  0
   -3.8817   -1.2135    0.0000 N   0  0  0  0  0  0  0  0  0  0  0  0
   -5.3083   -0.7500    0.0000 N   0  0  0  0  0  0  0  0  0  0  0  0
   -5.3083    0.7500    0.0000 N   0  0  0  0  0  0  0  0  0  0  0  0
   -3.8817    1.2135    0.0000 N   0  0  0  0  0  0  0  0  0  0  0  0
   -3.4182    2.6401    0.0000 C   0  0  0  0  0  0  0  0  0  0  0  0
   -1.9509    2.9520    0.0000 C   0  0  0  0  0  0  0  0  0  0  0  0
   -1.4874    4.3786    0.0000 C   0  0  0  0  0  0  0  0  0  0  0  0
   -2.4911    5.4933    0.0000 C   0  0  0  0  0  0  0  0  0  0  0  0
   -2.0276    6.9199    0.0000 C   0  0  0  0  0  0  0  0  0  0  0  0
   -3.0313    8.0346    0.0000 O   0  0  0  0  0  0  0  0  0  0  0  0
   -0.5604    7.2317    0.0000 N   0  0  0  0  0  0  0  0  0  0  0  0
   -0.0968    8.6583    0.0000 C   0  0  0  0  0  0  0  0  0  0  0  0
    1.3704    8.9702    0.0000 C   0  0  0  0  0  0  0  0  0  0  0  0
    1.8339   10.3968    0.0000 C   0  0  0  0  0  0  0  0  0  0  0  0
    0.8302   11.5115    0.0000 C   0  0  0  0  0  0  0  0  0  0  0  0
   -0.6370   11.1996    0.0000 C   0  0  0  0  0  0  0  0  0  0  0  0
   -1.1005    9.7730    0.0000 C   0  0  0  0  0  0  0  0  0  0  0  0
   -3.9583    5.1814    0.0000 C   0  0  0  0  0  0  0  0  0  0  0  0
   -4.4218    3.7548    0.0000 C   0  0  0  0  0  0  0  0  0  0  0  0
   -5.8891    3.4430    0.0000 O   0  0  0  0  0  0  0  0  0  0  0  0
   -0.7500   -1.2990    0.0000 C   0  0  0  0  0  0  0  0  0  0  0  0
   -1.5000   -2.5981    0.0000 O   0  0  0  0  0  0  0  0  0  0  0  0
    0.7500   -1.2990    0.0000 N   0  0  0  0  0  0  0  0  0  0  0  0
  1  2  1  0
  2  3  2  0
  3  4  1  0
  4  5  2  0
  5  6  1  0
  6  7  2  0
  7  8  1  0
  8  9  2  0
  9 10  1  0
 10 11  1  0
 11 12  2  0
 12 13  1  0
 13 14  2  0
 14 15  1  0
 15 16  2  0
 15 17  1  0
 17 18  1  0
 18 19  2  0
 19 20  1  0
 20 21  2  0
 21 22  1  0
 22 23  2  0
 14 24  1  0
 24 25  2  0
 25 26  1  0
  5 27  1  0
 27 28  2  0
 27 29  1  0
 29  2  1  0
 10  6  1  0
 25 11  1  0
 23 18  1  0
M  END
>  <Title>  (837) 
idABGEgen7

$$$$

     RDKit          2D

 28 32  0  0  0  0  0  0  0  0999 V2000
    2.3133    0.4372    0.0000 O   0  0  0  0  0  0  0  0  0  0  0  0
    3.6836   -0.1729    0.0000 C   0  0  0  0  0  0  0  0  0  0  0  0
    3.9955   -1.6402    0.0000 C   0  0  0  0  0  0  0  0  0  0  0  0
    2.9918   -2.7549    0.0000 C   0  0  0  0  0  0  0  0  0  0  0  0
    3.3037   -4.2221    0.0000 N   0  0  0  0  0  0  0  0  0  0  0  0
    2.0046   -4.9721    0.0000 N   0  0  0  0  0  0  0  0  0  0  0  0
    0.8899   -3.9684    0.0000 N   0  0  0  0  0  0  0  0  0  0  0  0
    1.5000   -2.5981    0.0000 N   0  0  0  0  0  0  0  0  0  0  0  0
    0.7500   -1.2990    0.0000 C   0  0  0  0  0  0  0  0  0  0  0  0
    1.5000    0.0000    0.0000 C   0  0  0  0  0  0  0  0  0  0  0  0
    0.7500    1.2990    0.0000 C   0  0  0  0  0  0  0  0  0  0  0  0
   -0.7500    1.2990    0.0000 C   0  0  0  0  0  0  0  0  0  0  0  0
   -1.5000    0.0000    0.0000 C   0  0  0  0  0  0  0  0  0  0  0  0
   -0.7500   -1.2990    0.0000 C   0  0  0  0  0  0  0  0  0  0  0  0
    5.4873   -1.7969    0.0000 C   0  0  0  0  0  0  0  0  0  0  0  0
    6.0974   -0.4266    0.0000 C   0  0  0  0  0  0  0  0  0  0  0  0
    4.9826    0.5771    0.0000 C   0  0  0  0  0  0  0  0  0  0  0  0
    5.1394    2.0689    0.0000 N   0  0  0  0  0  0  0  0  0  0  0  0
    4.0247    3.0725    0.0000 N   0  0  0  0  0  0  0  0  0  0  0  0
    4.6348    4.4429    0.0000 N   0  0  0  0  0  0  0  0  0  0  0  0
    6.1266    4.2861    0.0000 N   0  0  0  0  0  0  0  0  0  0  0  0
    6.4385    2.8189    0.0000 C   0  0  0  0  0  0  0  0  0  0  0  0
    7.8088    2.2087    0.0000 C   0  0  0  0  0  0  0  0  0  0  0  0
    9.1078    2.9587    0.0000 C   0  0  0  0  0  0  0  0  0  0  0  0
   10.2226    1.9551    0.0000 C   0  0  0  0  0  0  0  0  0  0  0  0
    9.6124    0.5847    0.0000 C   0  0  0  0  0  0  0  0  0  0  0  0
   10.3624   -0.7143    0.0000 O   0  0  0  0  0  0  0  0  0  0  0  0
    8.1207    0.7415    0.0000 C   0  0  0  0  0  0  0  0  0  0  0  0
  1  2  2  0
  2  3  1  0
  3  4  1  0
  4  5  2  0
  5  6  1  0
  6  7  2  0
  7  8  1  0
  8  9  1  0
  9 10  2  0
 10 11  1  0
 11 12  2  0
 12 13  1  0
 13 14  2  0
  3 15  2  0
 15 16  1  0
 16 17  2  0
 17 18  1  0
 18 19  1  0
 19 20  2  0
 20 21  1  0
 21 22  2  0
 22 23  1  0
 23 24  2  0
 24 25  1  0
 25 26  2  0
 26 27  1  0
 26 28  1  0
 17  2  1  0
 22 18  1  0
 28 23  1  0
  8  4  1  0
 14  9  1  0
M  END
>  <Title>  (838) 
idABGFgen7

$$$$

     RDKit          2D

 36 40  0  0  0  0  0  0  0  0999 V2000
    3.0000    0.0000    0.0000 C   0  0  0  0  0  0  0  0  0  0  0  0
    1.5000    0.0000    0.0000 C   0  0  0  0  0  0  0  0  0  0  0  0
    0.7500    1.2990    0.0000 C   0  0  0  0  0  0  0  0  0  0  0  0
   -0.7500    1.2990    0.0000 C   0  0  0  0  0  0  0  0  0  0  0  0
   -1.5000    0.0000    0.0000 C   0  0  0  0  0  0  0  0  0  0  0  0
   -3.0000    0.0000    0.0000 C   0  0  0  0  0  0  0  0  0  0  0  0
   -3.8817   -1.2135    0.0000 N   0  0  0  0  0  0  0  0  0  0  0  0
   -5.3083   -0.7500    0.0000 N   0  0  0  0  0  0  0  0  0  0  0  0
   -5.3083    0.7500    0.0000 N   0  0  0  0  0  0  0  0  0  0  0  0
   -3.8817    1.2135    0.0000 N   0  0  0  0  0  0  0  0  0  0  0  0
   -3.4182    2.6401    0.0000 C   0  0  0  0  0  0  0  0  0  0  0  0
   -1.9509    2.9520    0.0000 C   0  0  0  0  0  0  0  0  0  0  0  0
   -1.4874    4.3786    0.0000 C   0  0  0  0  0  0  0  0  0  0  0  0
   -2.4911    5.4933    0.0000 C   0  0  0  0  0  0  0  0  0  0  0  0
   -3.9583    5.1814    0.0000 C   0  0  0  0  0  0  0  0  0  0  0  0
   -4.4218    3.7548    0.0000 C   0  0  0  0  0  0  0  0  0  0  0  0
   -5.8891    3.4430    0.0000 O   0  0  0  0  0  0  0  0  0  0  0  0
   -6.8928    4.5577    0.0000 C   0  0  0  0  0  0  0  0  0  0  0  0
   -6.4292    5.9843    0.0000 C   0  0  0  0  0  0  0  0  0  0  0  0
   -7.4329    7.0990    0.0000 C   0  0  0  0  0  0  0  0  0  0  0  0
   -8.9002    6.7871    0.0000 C   0  0  0  0  0  0  0  0  0  0  0  0
   -9.9039    7.9018    0.0000 C   0  0  0  0  0  0  0  0  0  0  0  0
  -11.3711    7.5900    0.0000 O   0  0  0  0  0  0  0  0  0  0  0  0
   -9.4403    9.3284    0.0000 N   0  0  0  0  0  0  0  0  0  0  0  0
  -10.4440   10.4431    0.0000 C   0  0  0  0  0  0  0  0  0  0  0  0
   -9.9805   11.8697    0.0000 C   0  0  0  0  0  0  0  0  0  0  0  0
  -10.9842   12.9844    0.0000 C   0  0  0  0  0  0  0  0  0  0  0  0
  -12.4514   12.6726    0.0000 C   0  0  0  0  0  0  0  0  0  0  0  0
  -12.9149   11.2460    0.0000 C   0  0  0  0  0  0  0  0  0  0  0  0
  -11.9112   10.1313    0.0000 C   0  0  0  0  0  0  0  0  0  0  0  0
   -9.3637    5.3605    0.0000 C   0  0  0  0  0  0  0  0  0  0  0  0
   -8.3600    4.2458    0.0000 C   0  0  0  0  0  0  0  0  0  0  0  0
   -8.8235    2.8192    0.0000 C   0  0  0  0  0  0  0  0  0  0  0  0
   -0.7500   -1.2990    0.0000 C   0  0  0  0  0  0  0  0  0  0  0  0
   -1.5000   -2.5981    0.0000 O   0  0  0  0  0  0  0  0  0  0  0  0
    0.7500   -1.2990    0.0000 N   0  0  0  0  0  0  0  0  0  0  0  0
  1  2  1  0
  2  3  2  0
  3  4  1  0
  4  5  2  0
  5  6  1  0
  6  7  2  0
  7  8  1  0
  8  9  2  0
  9 10  1  0
 10 11  1  0
 11 12  2  0
 12 13  1  0
 13 14  2  0
 14 15  1  0
 15 16  2  0
 16 17  1  0
 17 18  1  0
 18 19  2  0
 19 20  1  0
 20 21  2  0
 21 22  1  0
 22 23  2  0
 22 24  1  0
 24 25  1  0
 25 26  2  0
 26 27  1  0
 27 28  2  0
 28 29  1  0
 29 30  2  0
 21 31  1  0
 31 32  2  0
 32 33  1  0
  5 34  1  0
 34 35  2  0
 34 36  1  0
 36  2  1  0
 10  6  1  0
 16 11  1  0
 32 18  1  0
 30 25  1  0
M  END
>  <Title>  (839) 
idABGGgen7

$$$$

     RDKit          2D

 17 17  0  0  0  0  0  0  0  0999 V2000
    6.2286    2.5981    0.0000 C   0  0  0  0  0  0  0  0  0  0  0  0
    5.4786    1.2990    0.0000 C   0  0  0  0  0  0  0  0  0  0  0  0
    6.2286   -0.0000    0.0000 C   0  0  0  0  0  0  0  0  0  0  0  0
    3.9786    1.2990    0.0000 C   0  0  0  0  0  0  0  0  0  0  0  0
    3.2286   -0.0000    0.0000 C   0  0  0  0  0  0  0  0  0  0  0  0
    3.9786   -1.2990    0.0000 C   0  0  0  0  0  0  0  0  0  0  0  0
    1.7286    0.0000    0.0000 C   0  0  0  0  0  0  0  0  0  0  0  0
    1.0777    1.3515    0.0000 C   0  0  0  0  0  0  0  0  0  0  0  0
   -0.3846    1.6852    0.0000 C   0  0  0  0  0  0  0  0  0  0  0  0
   -1.5574    0.7500    0.0000 C   0  0  0  0  0  0  0  0  0  0  0  0
   -2.9088    1.4008    0.0000 C   0  0  0  0  0  0  0  0  0  0  0  0
   -3.0209    2.8966    0.0000 O   0  0  0  0  0  0  0  0  0  0  0  0
   -1.5574   -0.7500    0.0000 C   0  0  0  0  0  0  0  0  0  0  0  0
   -2.9088   -1.4008    0.0000 O   0  0  0  0  0  0  0  0  0  0  0  0
   -0.3846   -1.6852    0.0000 C   0  0  0  0  0  0  0  0  0  0  0  0
   -0.7184   -3.1476    0.0000 O   0  0  0  0  0  0  0  0  0  0  0  0
    1.0777   -1.3515    0.0000 C   0  0  0  0  0  0  0  0  0  0  0  0
  1  2  1  0
  2  3  1  0
  2  4  1  0
  4  5  1  0
  5  6  1  0
  5  7  1  0
  7  8  2  0
  8  9  1  0
  9 10  2  0
 10 11  1  0
 11 12  1  0
 10 13  1  0
 13 14  1  0
 13 15  1  0
 15 16  1  0
 15 17  1  0
 17  7  1  0
M  END
>  <Title>  (840) 
idABGHgen7

$$$$

     RDKit          2D

 12 12  0  0  0  0  0  0  0  0999 V2000
    4.6771   -1.2990    0.0000 C   0  0  0  0  0  0  0  0  0  0  0  0
    3.9271    0.0000    0.0000 C   0  0  0  0  0  0  0  0  0  0  0  0
    2.4271    0.0000    0.0000 C   0  0  0  0  0  0  0  0  0  0  0  0
    1.9635   -1.4266    0.0000 C   0  0  0  0  0  0  0  0  0  0  0  0
    0.7500   -2.3083    0.0000 C   0  0  0  0  0  0  0  0  0  0  0  0
   -0.7500   -2.3083    0.0000 C   0  0  0  0  0  0  0  0  0  0  0  0
   -1.9635   -1.4266    0.0000 C   0  0  0  0  0  0  0  0  0  0  0  0
   -2.4271    0.0000    0.0000 C   0  0  0  0  0  0  0  0  0  0  0  0
   -1.9635    1.4266    0.0000 C   0  0  0  0  0  0  0  0  0  0  0  0
   -0.7500    2.3083    0.0000 C   0  0  0  0  0  0  0  0  0  0  0  0
    0.7500    2.3083    0.0000 C   0  0  0  0  0  0  0  0  0  0  0  0
    1.9635    1.4266    0.0000 C   0  0  0  0  0  0  0  0  0  0  0  0
  1  2  1  0
  2  3  1  0
  3  4  1  0
  4  5  1  0
  5  6  1  0
  6  7  1  0
  7  8  1  0
  8  9  1  0
  9 10  1  0
 10 11  1  0
 11 12  1  0
 12  3  1  0
M  END
>  <Title>  (841) 
idABGIgen7

$$$$

     RDKit          2D

 65 74  0  0  0  0  0  0  0  0999 V2000
    3.0000   -0.0000    0.0000 C   0  0  0  0  0  0  0  0  0  0  0  0
    1.5000   -0.0000    0.0000 C   0  0  0  0  0  0  0  0  0  0  0  0
    0.7500   -1.2990    0.0000 C   0  0  0  0  0  0  0  0  0  0  0  0
   -0.7500   -1.2990    0.0000 C   0  0  0  0  0  0  0  0  0  0  0  0
   -1.5000   -0.0000    0.0000 C   0  0  0  0  0  0  0  0  0  0  0  0
   -3.0000   -0.0000    0.0000 C   0  0  0  0  0  0  0  0  0  0  0  0
   -3.8817   -1.2135    0.0000 N   0  0  0  0  0  0  0  0  0  0  0  0
   -5.3083   -0.7500    0.0000 N   0  0  0  0  0  0  0  0  0  0  0  0
   -5.3083    0.7500    0.0000 N   0  0  0  0  0  0  0  0  0  0  0  0
   -3.8817    1.2135    0.0000 N   0  0  0  0  0  0  0  0  0  0  0  0
   -3.4182    2.6401    0.0000 C   0  0  0  0  0  0  0  0  0  0  0  0
   -1.9509    2.9520    0.0000 C   0  0  0  0  0  0  0  0  0  0  0  0
   -1.4874    4.3786    0.0000 C   0  0  0  0  0  0  0  0  0  0  0  0
   -2.4911    5.4933    0.0000 C   0  0  0  0  0  0  0  0  0  0  0  0
   -2.0276    6.9199    0.0000 C   0  0  0  0  0  0  0  0  0  0  0  0
   -0.5604    7.2317    0.0000 C   0  0  0  0  0  0  0  0  0  0  0  0
   -0.0968    8.6583    0.0000 C   0  0  0  0  0  0  0  0  0  0  0  0
   -1.1005    9.7730    0.0000 C   0  0  0  0  0  0  0  0  0  0  0  0
   -2.5677    9.4612    0.0000 C   0  0  0  0  0  0  0  0  0  0  0  0
   -3.0313    8.0346    0.0000 C   0  0  0  0  0  0  0  0  0  0  0  0
   -4.4985    7.7227    0.0000 C   0  0  0  0  0  0  0  0  0  0  0  0
   -4.9620    6.2961    0.0000 C   0  0  0  0  0  0  0  0  0  0  0  0
   -6.4292    5.9843    0.0000 C   0  0  0  0  0  0  0  0  0  0  0  0
   -7.4329    7.0990    0.0000 C   0  0  0  0  0  0  0  0  0  0  0  0
   -8.9002    6.7871    0.0000 C   0  0  0  0  0  0  0  0  0  0  0  0
   -9.9039    7.9018    0.0000 O   0  0  0  0  0  0  0  0  0  0  0  0
   -9.3637    5.3605    0.0000 N   0  0  0  0  0  0  0  0  0  0  0  0
  -10.8309    5.0487    0.0000 C   0  0  0  0  0  0  0  0  0  0  0  0
  -11.2944    3.6221    0.0000 C   0  0  0  0  0  0  0  0  0  0  0  0
  -12.7617    3.3102    0.0000 C   0  0  0  0  0  0  0  0  0  0  0  0
  -13.7653    4.4249    0.0000 C   0  0  0  0  0  0  0  0  0  0  0  0
  -13.3018    5.8515    0.0000 C   0  0  0  0  0  0  0  0  0  0  0  0
  -11.8346    6.1634    0.0000 C   0  0  0  0  0  0  0  0  0  0  0  0
   -6.9694    8.5256    0.0000 C   0  0  0  0  0  0  0  0  0  0  0  0
   -5.5022    8.8374    0.0000 C   0  0  0  0  0  0  0  0  0  0  0  0
   -5.0387   10.2640    0.0000 C   0  0  0  0  0  0  0  0  0  0  0  0
   -6.0424   11.3787    0.0000 C   0  0  0  0  0  0  0  0  0  0  0  0
   -5.5788   12.8053    0.0000 C   0  0  0  0  0  0  0  0  0  0  0  0
   -4.1116   13.1172    0.0000 C   0  0  0  0  0  0  0  0  0  0  0  0
   -3.1079   12.0025    0.0000 C   0  0  0  0  0  0  0  0  0  0  0  0
   -3.5714   10.5759    0.0000 C   0  0  0  0  0  0  0  0  0  0  0  0
   -3.9583    5.1814    0.0000 C   0  0  0  0  0  0  0  0  0  0  0  0
   -4.4218    3.7548    0.0000 C   0  0  0  0  0  0  0  0  0  0  0  0
   -5.8891    3.4430    0.0000 C   0  0  0  0  0  0  0  0  0  0  0  0
   -7.0038    4.4467    0.0000 C   0  0  0  0  0  0  0  0  0  0  0  0
   -8.3028    3.6967    0.0000 C   0  0  0  0  0  0  0  0  0  0  0  0
   -7.9910    2.2294    0.0000 C   0  0  0  0  0  0  0  0  0  0  0  0
   -8.9947    1.1147    0.0000 C   0  0  0  0  0  0  0  0  0  0  0  0
  -10.4619    1.4266    0.0000 O   0  0  0  0  0  0  0  0  0  0  0  0
   -8.5311   -0.3119    0.0000 N   0  0  0  0  0  0  0  0  0  0  0  0
   -9.5348   -1.4266    0.0000 C   0  0  0  0  0  0  0  0  0  0  0  0
  -11.0266   -1.2698    0.0000 N   0  0  0  0  0  0  0  0  0  0  0  0
  -11.6367   -2.6401    0.0000 N   0  0  0  0  0  0  0  0  0  0  0  0
  -10.5220   -3.6438    0.0000 N   0  0  0  0  0  0  0  0  0  0  0  0
   -9.2230   -2.8938    0.0000 N   0  0  0  0  0  0  0  0  0  0  0  0
   -7.8526   -3.5039    0.0000 C   0  0  0  0  0  0  0  0  0  0  0  0
   -7.6958   -4.9957    0.0000 C   0  0  0  0  0  0  0  0  0  0  0  0
   -6.3255   -5.6058    0.0000 C   0  0  0  0  0  0  0  0  0  0  0  0
   -5.1120   -4.7241    0.0000 C   0  0  0  0  0  0  0  0  0  0  0  0
   -5.2688   -3.2323    0.0000 C   0  0  0  0  0  0  0  0  0  0  0  0
   -6.6391   -2.6222    0.0000 C   0  0  0  0  0  0  0  0  0  0  0  0
   -6.4992    2.0726    0.0000 C   0  0  0  0  0  0  0  0  0  0  0  0
   -6.1978    1.0215    0.0000 O   0  0  0  0  0  0  0  0  0  0  0  0
   -0.7500    1.2990    0.0000 C   0  0  0  0  0  0  0  0  0  0  0  0
    0.7500    1.2990    0.0000 C   0  0  0  0  0  0  0  0  0  0  0  0
  1  2  1  0
  2  3  2  0
  3  4  1  0
  4  5  2  0
  5  6  1  0
  6  7  2  0
  7  8  1  0
  8  9  2  0
  9 10  1  0
 10 11  1  0
 11 12  2  0
 12 13  1  0
 13 14  2  0
 14 15  1  0
 15 16  2  0
 16 17  1  0
 17 18  2  0
 18 19  1  0
 19 20  2  0
 20 21  1  0
 21 22  2  0
 22 23  1  0
 23 24  2  0
 24 25  1  0
 25 26  2  0
 25 27  1  0
 27 28  1  0
 28 29  2  0
 29 30  1  0
 30 31  2  0
 31 32  1  0
 32 33  2  0
 24 34  1  0
 34 35  2  0
 35 36  1  0
 36 37  2  0
 37 38  1  0
 38 39  2  0
 39 40  1  0
 40 41  2  0
 14 42  1  0
 42 43  2  0
 43 44  1  0
 44 45  2  0
 45 46  1  0
 46 47  2  0
 47 48  1  0
 48 49  2  0
 48 50  1  0
 50 51  1  0
 51 52  2  0
 52 53  1  0
 53 54  2  0
 54 55  1  0
 55 56  1  0
 56 57  2  0
 57 58  1  0
 58 59  2  0
 59 60  1  0
 60 61  2  0
 47 62  1  0
 62 63  2  0
  5 64  1  0
 64 65  2  0
 65  2  1  0
 10  6  1  0
 43 11  1  0
 62 44  1  0
 20 15  1  0
 35 21  1  0
 41 36  1  0
 55 51  1  0
 61 56  1  0
 33 28  1  0
M  END
>  <Title>  (842) 
idABGJgen7

$$$$

     RDKit          2D

 18 18  0  0  0  0  0  0  0  0999 V2000
    6.0944   -1.2990    0.0000 O   0  0  0  0  0  0  0  0  0  0  0  0
    5.3444    0.0000    0.0000 C   0  0  0  0  0  0  0  0  0  0  0  0
    3.8444    0.0000    0.0000 C   0  0  0  0  0  0  0  0  0  0  0  0
    3.5517   -1.4712    0.0000 C   0  0  0  0  0  0  0  0  0  0  0  0
    2.7184   -2.7184    0.0000 C   0  0  0  0  0  0  0  0  0  0  0  0
    1.4712   -3.5517    0.0000 C   0  0  0  0  0  0  0  0  0  0  0  0
   -0.0000   -3.8444    0.0000 C   0  0  0  0  0  0  0  0  0  0  0  0
   -1.4712   -3.5517    0.0000 C   0  0  0  0  0  0  0  0  0  0  0  0
   -2.7184   -2.7184    0.0000 C   0  0  0  0  0  0  0  0  0  0  0  0
   -3.5517   -1.4712    0.0000 C   0  0  0  0  0  0  0  0  0  0  0  0
   -3.8444    0.0000    0.0000 C   0  0  0  0  0  0  0  0  0  0  0  0
   -3.5517    1.4712    0.0000 C   0  0  0  0  0  0  0  0  0  0  0  0
   -2.7184    2.7184    0.0000 C   0  0  0  0  0  0  0  0  0  0  0  0
   -1.4712    3.5517    0.0000 C   0  0  0  0  0  0  0  0  0  0  0  0
    0.0000    3.8444    0.0000 C   0  0  0  0  0  0  0  0  0  0  0  0
    1.4712    3.5517    0.0000 C   0  0  0  0  0  0  0  0  0  0  0  0
    2.7184    2.7184    0.0000 C   0  0  0  0  0  0  0  0  0  0  0  0
    3.5517    1.4712    0.0000 C   0  0  0  0  0  0  0  0  0  0  0  0
  1  2  1  0
  2  3  1  0
  3  4  2  0
  4  5  1  0
  5  6  2  0
  6  7  1  0
  7  8  2  0
  8  9  1  0
  9 10  2  0
 10 11  1  0
 11 12  2  0
 12 13  1  0
 13 14  2  0
 14 15  1  0
 15 16  2  0
 16 17  1  0
 17 18  2  0
 18  3  1  0
M  END
>  <Title>  (843) 
idABGKgen7

$$$$

     RDKit          2D

 22 22  0  0  0  0  0  0  0  0999 V2000
    6.2943    0.0000    0.0000 C   0  0  0  0  0  0  0  0  0  0  0  0
    4.7943    0.0000    0.0000 C   0  0  0  0  0  0  0  0  0  0  0  0
    4.5597   -1.4815    0.0000 C   0  0  0  0  0  0  0  0  0  0  0  0
    3.8787   -2.8180    0.0000 C   0  0  0  0  0  0  0  0  0  0  0  0
    2.8180   -3.8787    0.0000 C   0  0  0  0  0  0  0  0  0  0  0  0
    1.4815   -4.5597    0.0000 C   0  0  0  0  0  0  0  0  0  0  0  0
   -0.0000   -4.7943    0.0000 C   0  0  0  0  0  0  0  0  0  0  0  0
   -1.4815   -4.5597    0.0000 C   0  0  0  0  0  0  0  0  0  0  0  0
   -2.8180   -3.8787    0.0000 C   0  0  0  0  0  0  0  0  0  0  0  0
   -3.8787   -2.8180    0.0000 C   0  0  0  0  0  0  0  0  0  0  0  0
   -4.5597   -1.4815    0.0000 C   0  0  0  0  0  0  0  0  0  0  0  0
   -4.7943    0.0000    0.0000 C   0  0  0  0  0  0  0  0  0  0  0  0
   -4.5597    1.4815    0.0000 C   0  0  0  0  0  0  0  0  0  0  0  0
   -3.8787    2.8180    0.0000 C   0  0  0  0  0  0  0  0  0  0  0  0
   -2.8180    3.8787    0.0000 C   0  0  0  0  0  0  0  0  0  0  0  0
   -1.4815    4.5597    0.0000 C   0  0  0  0  0  0  0  0  0  0  0  0
    0.0000    4.7943    0.0000 C   0  0  0  0  0  0  0  0  0  0  0  0
    1.4815    4.5597    0.0000 C   0  0  0  0  0  0  0  0  0  0  0  0
    2.8180    3.8787    0.0000 C   0  0  0  0  0  0  0  0  0  0  0  0
    3.6997    5.0922    0.0000 C   0  0  0  0  0  0  0  0  0  0  0  0
    3.8787    2.8180    0.0000 C   0  0  0  0  0  0  0  0  0  0  0  0
    4.5597    1.4815    0.0000 C   0  0  0  0  0  0  0  0  0  0  0  0
  1  2  1  0
  2  3  2  0
  3  4  1  0
  4  5  2  0
  5  6  1  0
  6  7  2  0
  7  8  1  0
  8  9  2  0
  9 10  1  0
 10 11  2  0
 11 12  1  0
 12 13  2  0
 13 14  1  0
 14 15  2  0
 15 16  1  0
 16 17  2  0
 17 18  1  0
 18 19  2  0
 19 20  1  0
 19 21  1  0
 21 22  2  0
 22  2  1  0
M  END
>  <Title>  (844) 
idABGLgen7

$$$$

     RDKit          2D

 45 50  0  0  0  0  0  0  0  0999 V2000
    3.0000    0.0000    0.0000 C   0  0  0  0  0  0  0  0  0  0  0  0
    1.5000    0.0000    0.0000 C   0  0  0  0  0  0  0  0  0  0  0  0
    0.7500   -1.2990    0.0000 C   0  0  0  0  0  0  0  0  0  0  0  0
   -0.7500   -1.2990    0.0000 C   0  0  0  0  0  0  0  0  0  0  0  0
   -1.5000    0.0000    0.0000 C   0  0  0  0  0  0  0  0  0  0  0  0
   -3.0000    0.0000    0.0000 C   0  0  0  0  0  0  0  0  0  0  0  0
   -3.7500   -1.2990    0.0000 O   0  0  0  0  0  0  0  0  0  0  0  0
   -3.7500    1.2990    0.0000 N   0  0  0  0  0  0  0  0  0  0  0  0
   -5.2500    1.2990    0.0000 C   0  0  0  0  0  0  0  0  0  0  0  0
   -6.3107    2.3597    0.0000 N   0  0  0  0  0  0  0  0  0  0  0  0
   -7.3713    1.2990    0.0000 C   0  0  0  0  0  0  0  0  0  0  0  0
   -8.8713    1.2990    0.0000 C   0  0  0  0  0  0  0  0  0  0  0  0
   -9.6213    0.0000    0.0000 O   0  0  0  0  0  0  0  0  0  0  0  0
   -9.6213    2.5981    0.0000 N   0  0  0  0  0  0  0  0  0  0  0  0
  -11.1213    2.5981    0.0000 C   0  0  0  0  0  0  0  0  0  0  0  0
  -12.0030    1.3846    0.0000 N   0  0  0  0  0  0  0  0  0  0  0  0
  -13.4296    1.8481    0.0000 N   0  0  0  0  0  0  0  0  0  0  0  0
  -13.4296    3.3481    0.0000 N   0  0  0  0  0  0  0  0  0  0  0  0
  -12.0030    3.8116    0.0000 N   0  0  0  0  0  0  0  0  0  0  0  0
  -11.5395    5.2382    0.0000 C   0  0  0  0  0  0  0  0  0  0  0  0
  -10.0723    5.5501    0.0000 C   0  0  0  0  0  0  0  0  0  0  0  0
   -9.6087    6.9766    0.0000 C   0  0  0  0  0  0  0  0  0  0  0  0
  -10.6124    8.0914    0.0000 C   0  0  0  0  0  0  0  0  0  0  0  0
  -10.1489    9.5179    0.0000 C   0  0  0  0  0  0  0  0  0  0  0  0
  -11.1526   10.6327    0.0000 O   0  0  0  0  0  0  0  0  0  0  0  0
   -8.6817    9.8298    0.0000 N   0  0  0  0  0  0  0  0  0  0  0  0
   -8.2181   11.2564    0.0000 C   0  0  0  0  0  0  0  0  0  0  0  0
   -6.7509   11.5683    0.0000 C   0  0  0  0  0  0  0  0  0  0  0  0
   -6.2874   12.9948    0.0000 C   0  0  0  0  0  0  0  0  0  0  0  0
   -7.2911   14.1096    0.0000 C   0  0  0  0  0  0  0  0  0  0  0  0
   -8.7583   13.7977    0.0000 C   0  0  0  0  0  0  0  0  0  0  0  0
   -9.2218   12.3711    0.0000 C   0  0  0  0  0  0  0  0  0  0  0  0
  -12.0796    7.7795    0.0000 C   0  0  0  0  0  0  0  0  0  0  0  0
  -12.5432    6.3529    0.0000 C   0  0  0  0  0  0  0  0  0  0  0  0
  -14.0104    6.0410    0.0000 C   0  0  0  0  0  0  0  0  0  0  0  0
  -15.0141    7.1558    0.0000 C   0  0  0  0  0  0  0  0  0  0  0  0
  -16.4813    6.8439    0.0000 C   0  0  0  0  0  0  0  0  0  0  0  0
  -16.9448    5.4173    0.0000 C   0  0  0  0  0  0  0  0  0  0  0  0
  -15.9411    4.3026    0.0000 C   0  0  0  0  0  0  0  0  0  0  0  0
  -14.4739    4.6145    0.0000 C   0  0  0  0  0  0  0  0  0  0  0  0
   -6.3107    0.2384    0.0000 C   0  0  0  0  0  0  0  0  0  0  0  0
   -6.3107   -1.2616    0.0000 O   0  0  0  0  0  0  0  0  0  0  0  0
   -0.7500    1.2990    0.0000 C   0  0  0  0  0  0  0  0  0  0  0  0
   -1.5000    2.5981    0.0000 O   0  0  0  0  0  0  0  0  0  0  0  0
    0.7500    1.2990    0.0000 N   0  0  0  0  0  0  0  0  0  0  0  0
  1  2  1  0
  2  3  2  0
  3  4  1  0
  4  5  2  0
  5  6  1  0
  6  7  2  0
  6  8  1  0
  8  9  1  0
  9 10  2  0
 10 11  1  0
 11 12  1  0
 12 13  2  0
 12 14  1  0
 14 15  1  0
 15 16  2  0
 16 17  1  0
 17 18  2  0
 18 19  1  0
 19 20  1  0
 20 21  2  0
 21 22  1  0
 22 23  2  0
 23 24  1  0
 24 25  2  0
 24 26  1  0
 26 27  1  0
 27 28  2  0
 28 29  1  0
 29 30  2  0
 30 31  1  0
 31 32  2  0
 23 33  1  0
 33 34  2  0
 34 35  1  0
 35 36  2  0
 36 37  1  0
 37 38  2  0
 38 39  1  0
 39 40  2  0
 11 41  1  0
 41 42  2  0
  5 43  1  0
 43 44  2  0
 43 45  1  0
 45  2  1  0
 41  9  1  0
 19 15  1  0
 34 20  1  0
 40 35  1  0
 32 27  1  0
M  END
>  <Title>  (845) 
idABGMgen7

$$$$

     RDKit          2D

 22 24  0  0  0  0  0  0  0  0999 V2000
    3.0000    0.0000    0.0000 C   0  0  0  0  0  0  0  0  0  0  0  0
    1.5000    0.0000    0.0000 C   0  0  0  0  0  0  0  0  0  0  0  0
    0.7500   -1.2990    0.0000 C   0  0  0  0  0  0  0  0  0  0  0  0
   -0.7500   -1.2990    0.0000 C   0  0  0  0  0  0  0  0  0  0  0  0
   -1.5000    0.0000    0.0000 C   0  0  0  0  0  0  0  0  0  0  0  0
   -3.0000    0.0000    0.0000 N   0  0  0  0  0  0  0  0  0  0  0  0
   -3.7500    1.2990    0.0000 N   0  0  0  0  0  0  0  0  0  0  0  0
   -5.2500    1.2990    0.0000 N   0  0  0  0  0  0  0  0  0  0  0  0
   -6.0000    0.0000    0.0000 N   0  0  0  0  0  0  0  0  0  0  0  0
   -5.2500   -1.2990    0.0000 N   0  0  0  0  0  0  0  0  0  0  0  0
   -3.7500   -1.2990    0.0000 N   0  0  0  0  0  0  0  0  0  0  0  0
   -3.0000   -2.5981    0.0000 C   0  0  0  0  0  0  0  0  0  0  0  0
   -3.7500   -3.8971    0.0000 C   0  0  0  0  0  0  0  0  0  0  0  0
   -3.0000   -5.1962    0.0000 C   0  0  0  0  0  0  0  0  0  0  0  0
   -1.5000   -5.1962    0.0000 C   0  0  0  0  0  0  0  0  0  0  0  0
   -0.7500   -6.4952    0.0000 C   0  0  0  0  0  0  0  0  0  0  0  0
   -0.7500   -3.8971    0.0000 C   0  0  0  0  0  0  0  0  0  0  0  0
    0.7500   -3.8971    0.0000 O   0  0  0  0  0  0  0  0  0  0  0  0
   -1.5000   -2.5981    0.0000 N   0  0  0  0  0  0  0  0  0  0  0  0
   -0.7500    1.2990    0.0000 C   0  0  0  0  0  0  0  0  0  0  0  0
   -1.5000    2.5981    0.0000 O   0  0  0  0  0  0  0  0  0  0  0  0
    0.7500    1.2990    0.0000 N   0  0  0  0  0  0  0  0  0  0  0  0
  1  2  1  0
  2  3  2  0
  3  4  1  0
  4  5  2  0
  5  6  1  0
  6  7  1  0
  7  8  2  0
  8  9  1  0
  9 10  2  0
 10 11  1  0
 11 12  1  0
 12 13  2  0
 13 14  1  0
 14 15  2  0
 15 16  1  0
 15 17  1  0
 17 18  2  0
 17 19  1  0
  5 20  1  0
 20 21  2  0
 20 22  1  0
 22  2  1  0
 11  6  1  0
 19 12  1  0
M  END
>  <Title>  (846) 
idABGNgen7

$$$$

     RDKit          2D

 34 38  0  0  0  0  0  0  0  0999 V2000
    3.0000    0.0000    0.0000 C   0  0  0  0  0  0  0  0  0  0  0  0
    1.5000    0.0000    0.0000 C   0  0  0  0  0  0  0  0  0  0  0  0
    0.7500   -1.2990    0.0000 C   0  0  0  0  0  0  0  0  0  0  0  0
   -0.7500   -1.2990    0.0000 C   0  0  0  0  0  0  0  0  0  0  0  0
   -1.5000    0.0000    0.0000 C   0  0  0  0  0  0  0  0  0  0  0  0
   -3.0000    0.0000    0.0000 C   0  0  0  0  0  0  0  0  0  0  0  0
   -3.7500   -1.2990    0.0000 O   0  0  0  0  0  0  0  0  0  0  0  0
   -3.7500    1.2990    0.0000 N   0  0  0  0  0  0  0  0  0  0  0  0
   -5.2500    1.2990    0.0000 C   0  0  0  0  0  0  0  0  0  0  0  0
   -6.1317    0.0855    0.0000 N   0  0  0  0  0  0  0  0  0  0  0  0
   -7.5583    0.5490    0.0000 N   0  0  0  0  0  0  0  0  0  0  0  0
   -7.5583    2.0490    0.0000 N   0  0  0  0  0  0  0  0  0  0  0  0
   -6.1317    2.5126    0.0000 N   0  0  0  0  0  0  0  0  0  0  0  0
   -5.6682    3.9391    0.0000 C   0  0  0  0  0  0  0  0  0  0  0  0
   -4.2009    4.2510    0.0000 C   0  0  0  0  0  0  0  0  0  0  0  0
   -3.7374    5.6776    0.0000 C   0  0  0  0  0  0  0  0  0  0  0  0
   -4.7411    6.7923    0.0000 C   0  0  0  0  0  0  0  0  0  0  0  0
   -4.2776    8.2189    0.0000 C   0  0  0  0  0  0  0  0  0  0  0  0
   -2.8104    8.5308    0.0000 C   0  0  0  0  0  0  0  0  0  0  0  0
   -2.3468    9.9574    0.0000 C   0  0  0  0  0  0  0  0  0  0  0  0
   -3.3505   11.0721    0.0000 C   0  0  0  0  0  0  0  0  0  0  0  0
   -2.8870   12.4987    0.0000 C   0  0  0  0  0  0  0  0  0  0  0  0
   -1.4198   12.8105    0.0000 C   0  0  0  0  0  0  0  0  0  0  0  0
   -0.9563   14.2371    0.0000 C   0  0  0  0  0  0  0  0  0  0  0  0
   -1.9599   15.3518    0.0000 C   0  0  0  0  0  0  0  0  0  0  0  0
   -3.4272   15.0400    0.0000 C   0  0  0  0  0  0  0  0  0  0  0  0
   -3.8907   13.6134    0.0000 C   0  0  0  0  0  0  0  0  0  0  0  0
   -4.8177   10.7602    0.0000 C   0  0  0  0  0  0  0  0  0  0  0  0
   -5.2813    9.3336    0.0000 C   0  0  0  0  0  0  0  0  0  0  0  0
   -6.2083    6.4805    0.0000 C   0  0  0  0  0  0  0  0  0  0  0  0
   -6.6718    5.0539    0.0000 C   0  0  0  0  0  0  0  0  0  0  0  0
   -0.7500    1.2990    0.0000 C   0  0  0  0  0  0  0  0  0  0  0  0
   -1.5000    2.5981    0.0000 O   0  0  0  0  0  0  0  0  0  0  0  0
    0.7500    1.2990    0.0000 N   0  0  0  0  0  0  0  0  0  0  0  0
  1  2  1  0
  2  3  2  0
  3  4  1  0
  4  5  2  0
  5  6  1  0
  6  7  2  0
  6  8  1  0
  8  9  1  0
  9 10  2  0
 10 11  1  0
 11 12  2  0
 12 13  1  0
 13 14  1  0
 14 15  2  0
 15 16  1  0
 16 17  2  0
 17 18  1  0
 18 19  2  0
 19 20  1  0
 20 21  2  0
 21 22  1  0
 22 23  2  0
 23 24  1  0
 24 25  2  0
 25 26  1  0
 26 27  2  0
 21 28  1  0
 28 29  2  0
 17 30  1  0
 30 31  2  0
  5 32  1  0
 32 33  2  0
 32 34  1  0
 34  2  1  0
 13  9  1  0
 31 14  1  0
 29 18  1  0
 27 22  1  0
M  END
>  <Title>  (847) 
idABGOgen7

$$$$

     RDKit          2D

 10 10  0  0  0  0  0  0  0  0999 V2000
    4.2098   -1.2990    0.0000 O   0  0  0  0  0  0  0  0  0  0  0  0
    3.4598   -0.0000    0.0000 C   0  0  0  0  0  0  0  0  0  0  0  0
    1.9598    0.0000    0.0000 C   0  0  0  0  0  0  0  0  0  0  0  0
    1.3858   -1.3858    0.0000 C   0  0  0  0  0  0  0  0  0  0  0  0
   -0.0000   -1.9598    0.0000 C   0  0  0  0  0  0  0  0  0  0  0  0
   -1.3858   -1.3858    0.0000 C   0  0  0  0  0  0  0  0  0  0  0  0
   -1.9598    0.0000    0.0000 C   0  0  0  0  0  0  0  0  0  0  0  0
   -1.3858    1.3858    0.0000 C   0  0  0  0  0  0  0  0  0  0  0  0
    0.0000    1.9598    0.0000 C   0  0  0  0  0  0  0  0  0  0  0  0
    1.3858    1.3858    0.0000 C   0  0  0  0  0  0  0  0  0  0  0  0
  1  2  1  0
  2  3  1  0
  3  4  2  0
  4  5  1  0
  5  6  2  0
  6  7  1  0
  7  8  2  0
  8  9  1  0
  9 10  2  0
 10  3  1  0
M  END
>  <Title>  (848) 
idABGPgen7

$$$$

     RDKit          2D

 66 73  0  0  0  0  0  0  0  0999 V2000
    3.0000    0.0000    0.0000 C   0  0  0  0  0  0  0  0  0  0  0  0
    1.5000    0.0000    0.0000 C   0  0  0  0  0  0  0  0  0  0  0  0
    0.7500   -1.2990    0.0000 C   0  0  0  0  0  0  0  0  0  0  0  0
   -0.7500   -1.2990    0.0000 C   0  0  0  0  0  0  0  0  0  0  0  0
   -1.5000    0.0000    0.0000 C   0  0  0  0  0  0  0  0  0  0  0  0
   -3.0000    0.0000    0.0000 C   0  0  0  0  0  0  0  0  0  0  0  0
   -3.7500    1.2990    0.0000 C   0  0  0  0  0  0  0  0  0  0  0  0
   -3.7500   -1.2990    0.0000 C   0  0  0  0  0  0  0  0  0  0  0  0
   -5.2500   -1.2990    0.0000 C   0  0  0  0  0  0  0  0  0  0  0  0
   -6.0000   -2.5981    0.0000 C   0  0  0  0  0  0  0  0  0  0  0  0
   -7.5000   -2.5981    0.0000 C   0  0  0  0  0  0  0  0  0  0  0  0
   -8.2500   -3.8971    0.0000 C   0  0  0  0  0  0  0  0  0  0  0  0
   -9.7500   -3.8971    0.0000 C   0  0  0  0  0  0  0  0  0  0  0  0
  -10.5000   -5.1962    0.0000 C   0  0  0  0  0  0  0  0  0  0  0  0
  -12.0000   -5.1962    0.0000 C   0  0  0  0  0  0  0  0  0  0  0  0
  -12.7500   -6.4952    0.0000 C   0  0  0  0  0  0  0  0  0  0  0  0
  -14.2500   -6.4952    0.0000 C   0  0  0  0  0  0  0  0  0  0  0  0
  -15.0000   -7.7942    0.0000 C   0  0  0  0  0  0  0  0  0  0  0  0
  -16.5000   -7.7942    0.0000 C   0  0  0  0  0  0  0  0  0  0  0  0
  -17.2500   -9.0933    0.0000 C   0  0  0  0  0  0  0  0  0  0  0  0
  -18.7500   -9.0933    0.0000 C   0  0  0  0  0  0  0  0  0  0  0  0
  -19.5000  -10.3923    0.0000 C   0  0  0  0  0  0  0  0  0  0  0  0
  -18.8899  -11.7626    0.0000 N   0  0  0  0  0  0  0  0  0  0  0  0
  -20.0046  -12.7663    0.0000 N   0  0  0  0  0  0  0  0  0  0  0  0
  -21.3037  -12.0163    0.0000 N   0  0  0  0  0  0  0  0  0  0  0  0
  -20.9918  -10.5491    0.0000 C   0  0  0  0  0  0  0  0  0  0  0  0
  -21.9955   -9.4344    0.0000 N   0  0  0  0  0  0  0  0  0  0  0  0
  -21.5320   -8.0078    0.0000 C   0  0  0  0  0  0  0  0  0  0  0  0
  -22.5356   -6.8931    0.0000 N   0  0  0  0  0  0  0  0  0  0  0  0
  -24.0029   -7.2049    0.0000 N   0  0  0  0  0  0  0  0  0  0  0  0
  -24.4664   -8.6315    0.0000 N   0  0  0  0  0  0  0  0  0  0  0  0
  -23.4627   -9.7462    0.0000 N   0  0  0  0  0  0  0  0  0  0  0  0
  -23.9262  -11.1728    0.0000 C   0  0  0  0  0  0  0  0  0  0  0  0
  -22.9225  -12.2875    0.0000 C   0  0  0  0  0  0  0  0  0  0  0  0
  -23.3861  -13.7141    0.0000 C   0  0  0  0  0  0  0  0  0  0  0  0
  -24.8533  -14.0260    0.0000 C   0  0  0  0  0  0  0  0  0  0  0  0
  -25.3168  -15.4526    0.0000 C   0  0  0  0  0  0  0  0  0  0  0  0
  -24.3131  -16.5673    0.0000 C   0  0  0  0  0  0  0  0  0  0  0  0
  -24.7766  -17.9939    0.0000 C   0  0  0  0  0  0  0  0  0  0  0  0
  -26.2439  -18.3058    0.0000 C   0  0  0  0  0  0  0  0  0  0  0  0
  -26.7074  -19.7323    0.0000 C   0  0  0  0  0  0  0  0  0  0  0  0
  -25.7037  -20.8471    0.0000 C   0  0  0  0  0  0  0  0  0  0  0  0
  -26.1672  -22.2736    0.0000 C   0  0  0  0  0  0  0  0  0  0  0  0
  -27.6344  -22.5855    0.0000 C   0  0  0  0  0  0  0  0  0  0  0  0
  -28.6381  -21.4708    0.0000 C   0  0  0  0  0  0  0  0  0  0  0  0
  -28.1746  -20.0442    0.0000 C   0  0  0  0  0  0  0  0  0  0  0  0
  -27.2475  -17.1910    0.0000 C   0  0  0  0  0  0  0  0  0  0  0  0
  -26.7840  -15.7645    0.0000 C   0  0  0  0  0  0  0  0  0  0  0  0
  -27.7877  -14.6497    0.0000 C   0  0  0  0  0  0  0  0  0  0  0  0
  -29.2549  -14.9616    0.0000 C   0  0  0  0  0  0  0  0  0  0  0  0
  -30.2586  -13.8469    0.0000 C   0  0  0  0  0  0  0  0  0  0  0  0
  -29.7951  -12.4203    0.0000 C   0  0  0  0  0  0  0  0  0  0  0  0
  -28.3279  -12.1084    0.0000 C   0  0  0  0  0  0  0  0  0  0  0  0
  -27.3242  -13.2232    0.0000 C   0  0  0  0  0  0  0  0  0  0  0  0
  -25.8570  -12.9113    0.0000 C   0  0  0  0  0  0  0  0  0  0  0  0
  -25.3934  -11.4847    0.0000 C   0  0  0  0  0  0  0  0  0  0  0  0
  -26.3971  -10.3700    0.0000 C   0  0  0  0  0  0  0  0  0  0  0  0
  -27.8644  -10.6819    0.0000 C   0  0  0  0  0  0  0  0  0  0  0  0
  -28.8681   -9.5671    0.0000 C   0  0  0  0  0  0  0  0  0  0  0  0
  -28.4045   -8.1405    0.0000 C   0  0  0  0  0  0  0  0  0  0  0  0
  -29.4082   -7.0258    0.0000 C   0  0  0  0  0  0  0  0  0  0  0  0
  -26.9373   -7.8287    0.0000 C   0  0  0  0  0  0  0  0  0  0  0  0
  -26.4738   -6.4021    0.0000 O   0  0  0  0  0  0  0  0  0  0  0  0
  -25.9336   -8.9434    0.0000 N   0  0  0  0  0  0  0  0  0  0  0  0
   -0.7500    1.2990    0.0000 C   0  0  0  0  0  0  0  0  0  0  0  0
    0.7500    1.2990    0.0000 C   0  0  0  0  0  0  0  0  0  0  0  0
  1  2  1  0
  2  3  2  0
  3  4  1  0
  4  5  2  0
  5  6  1  0
  6  7  1  0
  6  8  2  3
  8  9  1  0
  9 10  2  3
 10 11  1  0
 11 12  2  3
 12 13  1  0
 13 14  2  3
 14 15  1  0
 15 16  2  3
 16 17  1  0
 17 18  2  3
 18 19  1  0
 19 20  2  3
 20 21  1  0
 21 22  2  3
 22 23  1  0
 23 24  2  0
 24 25  1  0
 25 26  2  0
 26 27  1  0
 27 28  1  0
 28 29  2  0
 29 30  1  0
 30 31  2  0
 31 32  1  0
 32 33  1  0
 33 34  2  0
 34 35  1  0
 35 36  2  0
 36 37  1  0
 37 38  2  0
 38 39  1  0
 39 40  2  0
 40 41  1  0
 41 42  2  0
 42 43  1  0
 43 44  2  0
 44 45  1  0
 45 46  2  0
 40 47  1  0
 47 48  2  0
 48 49  1  0
 49 50  2  0
 50 51  1  0
 51 52  2  0
 52 53  1  0
 53 54  2  0
 36 55  1  0
 55 56  2  0
 56 57  1  0
 57 58  2  0
 58 59  1  0
 59 60  2  0
 60 61  1  0
 60 62  1  0
 62 63  2  0
 62 64  1  0
  5 65  1  0
 65 66  1  0
 66  2  1  0
 26 22  1  0
 32 27  1  0
 56 33  1  0
 64 57  1  0
 48 37  1  0
 54 49  1  0
 46 41  1  0
M  END
>  <Title>  (849) 
idABGQgen7

$$$$

     RDKit          2D

 31 35  0  0  0  0  0  0  0  0999 V2000
   -8.9519    8.6915    0.0000 C   0  0  0  0  0  0  0  0  0  0  0  0
   -7.7384    7.8099    0.0000 C   0  0  0  0  0  0  0  0  0  0  0  0
   -7.8952    6.3181    0.0000 C   0  0  0  0  0  0  0  0  0  0  0  0
   -6.6817    5.4364    0.0000 C   0  0  0  0  0  0  0  0  0  0  0  0
   -5.3113    6.0465    0.0000 C   0  0  0  0  0  0  0  0  0  0  0  0
   -4.0978    5.1648    0.0000 C   0  0  0  0  0  0  0  0  0  0  0  0
   -4.2546    3.6731    0.0000 C   0  0  0  0  0  0  0  0  0  0  0  0
   -5.5537    2.9231    0.0000 N   0  0  0  0  0  0  0  0  0  0  0  0
   -5.2418    1.4558    0.0000 N   0  0  0  0  0  0  0  0  0  0  0  0
   -3.7500    1.2990    0.0000 N   0  0  0  0  0  0  0  0  0  0  0  0
   -3.1399    2.6694    0.0000 N   0  0  0  0  0  0  0  0  0  0  0  0
   -1.6727    2.9812    0.0000 C   0  0  0  0  0  0  0  0  0  0  0  0
   -0.6690    1.8665    0.0000 C   0  0  0  0  0  0  0  0  0  0  0  0
    0.7982    2.1784    0.0000 C   0  0  0  0  0  0  0  0  0  0  0  0
    1.2618    3.6050    0.0000 C   0  0  0  0  0  0  0  0  0  0  0  0
    2.7290    3.9168    0.0000 C   0  0  0  0  0  0  0  0  0  0  0  0
    3.3391    5.2871    0.0000 N   0  0  0  0  0  0  0  0  0  0  0  0
    4.8309    5.1304    0.0000 N   0  0  0  0  0  0  0  0  0  0  0  0
    5.1427    3.6631    0.0000 N   0  0  0  0  0  0  0  0  0  0  0  0
    3.8437    2.9131    0.0000 N   0  0  0  0  0  0  0  0  0  0  0  0
    3.6869    1.4213    0.0000 C   0  0  0  0  0  0  0  0  0  0  0  0
    2.3166    0.8112    0.0000 C   0  0  0  0  0  0  0  0  0  0  0  0
    2.1598   -0.6805    0.0000 C   0  0  0  0  0  0  0  0  0  0  0  0
    3.3733   -1.5622    0.0000 C   0  0  0  0  0  0  0  0  0  0  0  0
    4.7436   -0.9521    0.0000 C   0  0  0  0  0  0  0  0  0  0  0  0
    4.9004    0.5397    0.0000 C   0  0  0  0  0  0  0  0  0  0  0  0
    0.2581    4.7197    0.0000 C   0  0  0  0  0  0  0  0  0  0  0  0
   -1.2091    4.4078    0.0000 C   0  0  0  0  0  0  0  0  0  0  0  0
   -5.1546    7.5383    0.0000 C   0  0  0  0  0  0  0  0  0  0  0  0
   -3.7842    8.1484    0.0000 O   0  0  0  0  0  0  0  0  0  0  0  0
   -6.3681    8.4200    0.0000 N   0  0  0  0  0  0  0  0  0  0  0  0
  1  2  1  0
  2  3  2  0
  3  4  1  0
  4  5  2  0
  5  6  1  0
  6  7  1  0
  7  8  2  0
  8  9  1  0
  9 10  2  0
 10 11  1  0
 11 12  1  0
 12 13  2  0
 13 14  1  0
 14 15  2  0
 15 16  1  0
 16 17  2  0
 17 18  1  0
 18 19  2  0
 19 20  1  0
 20 21  1  0
 21 22  2  0
 22 23  1  0
 23 24  2  0
 24 25  1  0
 25 26  2  0
 15 27  1  0
 27 28  2  0
  5 29  1  0
 29 30  2  0
 29 31  1  0
 31  2  1  0
 11  7  1  0
 28 12  1  0
 20 16  1  0
 26 21  1  0
M  END
>  <Title>  (850) 
idABGRgen7

$$$$

     RDKit          2D

 57 65  0  0  0  0  0  0  0  0999 V2000
  -12.5630   -4.3210    0.0000 C   0  0  0  0  0  0  0  0  0  0  0  0
  -12.3913   -5.8112    0.0000 O   0  0  0  0  0  0  0  0  0  0  0  0
  -11.0150   -6.4076    0.0000 C   0  0  0  0  0  0  0  0  0  0  0  0
  -10.9552   -7.9064    0.0000 C   0  0  0  0  0  0  0  0  0  0  0  0
   -9.7460   -8.7941    0.0000 C   0  0  0  0  0  0  0  0  0  0  0  0
   -8.2981   -8.4023    0.0000 C   0  0  0  0  0  0  0  0  0  0  0  0
   -7.3169   -9.5368    0.0000 C   0  0  0  0  0  0  0  0  0  0  0  0
   -5.8437   -9.2542    0.0000 O   0  0  0  0  0  0  0  0  0  0  0  0
   -7.8087  -10.9538    0.0000 N   0  0  0  0  0  0  0  0  0  0  0  0
   -6.8275  -12.0883    0.0000 C   0  0  0  0  0  0  0  0  0  0  0  0
   -5.3329  -11.9613    0.0000 N   0  0  0  0  0  0  0  0  0  0  0  0
   -4.7502  -13.3435    0.0000 N   0  0  0  0  0  0  0  0  0  0  0  0
   -5.8847  -14.3248    0.0000 N   0  0  0  0  0  0  0  0  0  0  0  0
   -7.1686  -13.5490    0.0000 N   0  0  0  0  0  0  0  0  0  0  0  0
   -8.5508  -14.1317    0.0000 C   0  0  0  0  0  0  0  0  0  0  0  0
   -8.8918  -15.5924    0.0000 C   0  0  0  0  0  0  0  0  0  0  0  0
  -10.3865  -15.7194    0.0000 C   0  0  0  0  0  0  0  0  0  0  0  0
  -10.9691  -14.3372    0.0000 C   0  0  0  0  0  0  0  0  0  0  0  0
  -12.4298  -13.9961    0.0000 C   0  0  0  0  0  0  0  0  0  0  0  0
  -12.8648  -12.5606    0.0000 C   0  0  0  0  0  0  0  0  0  0  0  0
  -14.3255  -12.2195    0.0000 C   0  0  0  0  0  0  0  0  0  0  0  0
  -15.3512  -13.3140    0.0000 C   0  0  0  0  0  0  0  0  0  0  0  0
  -14.9163  -14.7495    0.0000 C   0  0  0  0  0  0  0  0  0  0  0  0
  -13.4555  -15.0906    0.0000 C   0  0  0  0  0  0  0  0  0  0  0  0
   -9.8346  -13.3559    0.0000 C   0  0  0  0  0  0  0  0  0  0  0  0
   -9.9616  -11.8613    0.0000 O   0  0  0  0  0  0  0  0  0  0  0  0
   -7.7017   -7.0259    0.0000 C   0  0  0  0  0  0  0  0  0  0  0  0
   -6.2026   -7.0783    0.0000 C   0  0  0  0  0  0  0  0  0  0  0  0
   -5.4077   -5.8062    0.0000 C   0  0  0  0  0  0  0  0  0  0  0  0
   -6.1120   -4.4818    0.0000 C   0  0  0  0  0  0  0  0  0  0  0  0
   -5.3171   -3.2097    0.0000 C   0  0  0  0  0  0  0  0  0  0  0  0
   -3.8499   -3.5216    0.0000 C   0  0  0  0  0  0  0  0  0  0  0  0
   -2.5254   -2.8174    0.0000 C   0  0  0  0  0  0  0  0  0  0  0  0
   -1.9635   -1.4266    0.0000 C   0  0  0  0  0  0  0  0  0  0  0  0
   -0.7500   -2.3083    0.0000 C   0  0  0  0  0  0  0  0  0  0  0  0
    0.7500   -2.3083    0.0000 C   0  0  0  0  0  0  0  0  0  0  0  0
    1.2135   -3.7348    0.0000 C   0  0  0  0  0  0  0  0  0  0  0  0
    0.2098   -4.8496    0.0000 C   0  0  0  0  0  0  0  0  0  0  0  0
    0.6734   -6.2761    0.0000 C   0  0  0  0  0  0  0  0  0  0  0  0
    2.1406   -6.5880    0.0000 C   0  0  0  0  0  0  0  0  0  0  0  0
    3.1443   -5.4733    0.0000 C   0  0  0  0  0  0  0  0  0  0  0  0
    2.6807   -4.0467    0.0000 C   0  0  0  0  0  0  0  0  0  0  0  0
    1.9635   -1.4266    0.0000 C   0  0  0  0  0  0  0  0  0  0  0  0
    2.4271    0.0000    0.0000 C   0  0  0  0  0  0  0  0  0  0  0  0
    1.9635    1.4266    0.0000 C   0  0  0  0  0  0  0  0  0  0  0  0
    0.7500    2.3083    0.0000 C   0  0  0  0  0  0  0  0  0  0  0  0
   -0.7500    2.3083    0.0000 C   0  0  0  0  0  0  0  0  0  0  0  0
   -1.9635    1.4266    0.0000 C   0  0  0  0  0  0  0  0  0  0  0  0
   -2.4271    0.0000    0.0000 C   0  0  0  0  0  0  0  0  0  0  0  0
   -3.6991    0.7949    0.0000 N   0  0  0  0  0  0  0  0  0  0  0  0
   -5.1845    0.5861    0.0000 N   0  0  0  0  0  0  0  0  0  0  0  0
   -6.1882   -0.5286    0.0000 N   0  0  0  0  0  0  0  0  0  0  0  0
   -6.2406   -2.0277    0.0000 N   0  0  0  0  0  0  0  0  0  0  0  0
   -7.6110   -4.4294    0.0000 C   0  0  0  0  0  0  0  0  0  0  0  0
   -8.4059   -5.7015    0.0000 C   0  0  0  0  0  0  0  0  0  0  0  0
   -9.8805   -5.4263    0.0000 C   0  0  0  0  0  0  0  0  0  0  0  0
  -10.2723   -3.9784    0.0000 O   0  0  0  0  0  0  0  0  0  0  0  0
  1  2  1  0
  2  3  1  0
  3  4  2  0
  4  5  1  0
  5  6  2  0
  6  7  1  0
  7  8  2  0
  7  9  1  0
  9 10  1  0
 10 11  2  0
 11 12  1  0
 12 13  2  0
 13 14  1  0
 14 15  1  0
 15 16  2  0
 16 17  1  0
 17 18  2  0
 18 19  1  0
 19 20  2  0
 20 21  1  0
 21 22  2  0
 22 23  1  0
 23 24  2  0
 18 25  1  0
 25 26  2  0
  6 27  1  0
 27 28  2  0
 28 29  1  0
 29 30  2  0
 30 31  1  0
 31 32  2  0
 32 33  1  0
 33 34  2  0
 34 35  1  0
 35 36  2  0
 36 37  1  0
 37 38  2  0
 38 39  1  0
 39 40  2  0
 40 41  1  0
 41 42  2  0
 36 43  1  0
 43 44  2  0
 44 45  1  0
 45 46  2  0
 46 47  1  0
 47 48  2  0
 48 49  1  0
 49 50  2  0
 50 51  1  0
 51 52  2  0
 52 53  1  0
 30 54  1  0
 54 55  2  0
 55 56  1  0
 56 57  2  0
 56  3  1  0
 14 10  1  0
 25 15  1  0
 55 27  1  0
 24 19  1  0
 53 31  1  0
 49 34  1  0
 42 37  1  0
 53 43  1  0
M  END
>  <Title>  (851) 
idABGSgen7

$$$$

     RDKit          2D

 47 53  0  0  0  0  0  0  0  0999 V2000
    0.8311   10.2038    0.0000 C   0  0  0  0  0  0  0  0  0  0  0  0
   -0.5392    9.5937    0.0000 C   0  0  0  0  0  0  0  0  0  0  0  0
   -0.6960    8.1019    0.0000 C   0  0  0  0  0  0  0  0  0  0  0  0
   -2.0663    7.4918    0.0000 C   0  0  0  0  0  0  0  0  0  0  0  0
   -3.2798    8.3735    0.0000 C   0  0  0  0  0  0  0  0  0  0  0  0
   -4.6502    7.7634    0.0000 C   0  0  0  0  0  0  0  0  0  0  0  0
   -5.9492    8.5134    0.0000 N   0  0  0  0  0  0  0  0  0  0  0  0
   -7.0639    7.5097    0.0000 N   0  0  0  0  0  0  0  0  0  0  0  0
   -6.4538    6.1393    0.0000 N   0  0  0  0  0  0  0  0  0  0  0  0
   -4.9620    6.2961    0.0000 N   0  0  0  0  0  0  0  0  0  0  0  0
   -3.9583    5.1814    0.0000 C   0  0  0  0  0  0  0  0  0  0  0  0
   -2.4911    5.4933    0.0000 C   0  0  0  0  0  0  0  0  0  0  0  0
   -1.4874    4.3786    0.0000 C   0  0  0  0  0  0  0  0  0  0  0  0
   -1.9509    2.9520    0.0000 C   0  0  0  0  0  0  0  0  0  0  0  0
   -3.4182    2.6401    0.0000 C   0  0  0  0  0  0  0  0  0  0  0  0
   -4.4218    3.7548    0.0000 C   0  0  0  0  0  0  0  0  0  0  0  0
   -5.8891    3.4430    0.0000 C   0  0  0  0  0  0  0  0  0  0  0  0
   -6.8928    4.5577    0.0000 C   0  0  0  0  0  0  0  0  0  0  0  0
   -8.3600    4.2458    0.0000 C   0  0  0  0  0  0  0  0  0  0  0  0
   -8.8235    2.8192    0.0000 C   0  0  0  0  0  0  0  0  0  0  0  0
  -10.2907    2.5074    0.0000 C   0  0  0  0  0  0  0  0  0  0  0  0
  -10.7543    1.0808    0.0000 O   0  0  0  0  0  0  0  0  0  0  0  0
  -11.2944    3.6221    0.0000 N   0  0  0  0  0  0  0  0  0  0  0  0
  -12.7617    3.3102    0.0000 C   0  0  0  0  0  0  0  0  0  0  0  0
  -13.3718    1.9399    0.0000 N   0  0  0  0  0  0  0  0  0  0  0  0
  -14.8635    2.0967    0.0000 N   0  0  0  0  0  0  0  0  0  0  0  0
  -15.1754    3.5639    0.0000 N   0  0  0  0  0  0  0  0  0  0  0  0
  -13.8764    4.3139    0.0000 N   0  0  0  0  0  0  0  0  0  0  0  0
  -13.7196    5.8057    0.0000 C   0  0  0  0  0  0  0  0  0  0  0  0
  -12.3493    6.4158    0.0000 C   0  0  0  0  0  0  0  0  0  0  0  0
  -12.1925    7.9076    0.0000 C   0  0  0  0  0  0  0  0  0  0  0  0
  -13.4060    8.7893    0.0000 C   0  0  0  0  0  0  0  0  0  0  0  0
  -14.7763    8.1791    0.0000 C   0  0  0  0  0  0  0  0  0  0  0  0
  -14.9331    6.6874    0.0000 C   0  0  0  0  0  0  0  0  0  0  0  0
   -7.8198    1.7045    0.0000 C   0  0  0  0  0  0  0  0  0  0  0  0
   -6.3526    2.0164    0.0000 C   0  0  0  0  0  0  0  0  0  0  0  0
   -5.3489    0.9017    0.0000 C   0  0  0  0  0  0  0  0  0  0  0  0
   -5.8124   -0.5249    0.0000 C   0  0  0  0  0  0  0  0  0  0  0  0
   -4.8087   -1.6396    0.0000 C   0  0  0  0  0  0  0  0  0  0  0  0
   -3.3415   -1.3278    0.0000 C   0  0  0  0  0  0  0  0  0  0  0  0
   -2.3378   -2.4425    0.0000 C   0  0  0  0  0  0  0  0  0  0  0  0
   -2.8780    0.0988    0.0000 C   0  0  0  0  0  0  0  0  0  0  0  0
   -1.4108    0.4107    0.0000 O   0  0  0  0  0  0  0  0  0  0  0  0
   -3.8817    1.2135    0.0000 N   0  0  0  0  0  0  0  0  0  0  0  0
   -3.1230    9.8652    0.0000 C   0  0  0  0  0  0  0  0  0  0  0  0
   -4.3366   10.7469    0.0000 O   0  0  0  0  0  0  0  0  0  0  0  0
   -1.7527   10.4753    0.0000 N   0  0  0  0  0  0  0  0  0  0  0  0
  1  2  1  0
  2  3  2  0
  3  4  1  0
  4  5  2  0
  5  6  1  0
  6  7  2  0
  7  8  1  0
  8  9  2  0
  9 10  1  0
 10 11  1  0
 11 12  2  0
 12 13  1  0
 13 14  2  0
 14 15  1  0
 15 16  2  0
 16 17  1  0
 17 18  2  0
 18 19  1  0
 19 20  2  0
 20 21  1  0
 21 22  2  0
 21 23  1  0
 23 24  1  0
 24 25  2  0
 25 26  1  0
 26 27  2  0
 27 28  1  0
 28 29  1  0
 29 30  2  0
 30 31  1  0
 31 32  2  0
 32 33  1  0
 33 34  2  0
 20 35  1  0
 35 36  2  0
 36 37  1  0
 37 38  2  0
 38 39  1  0
 39 40  2  0
 40 41  1  0
 40 42  1  0
 42 43  2  0
 42 44  1  0
  5 45  1  0
 45 46  2  0
 45 47  1  0
 47  2  1  0
 10  6  1  0
 16 11  1  0
 36 17  1  0
 44 37  1  0
 28 24  1  0
 34 29  1  0
M  END
>  <Title>  (852) 
idABGTgen7

$$$$

     RDKit          2D

 51 58  0  0  0  0  0  0  0  0999 V2000
    3.0000    0.0000    0.0000 C   0  0  0  0  0  0  0  0  0  0  0  0
    1.5000    0.0000    0.0000 C   0  0  0  0  0  0  0  0  0  0  0  0
    0.7500   -1.2990    0.0000 C   0  0  0  0  0  0  0  0  0  0  0  0
   -0.7500   -1.2990    0.0000 C   0  0  0  0  0  0  0  0  0  0  0  0
   -1.5000    0.0000    0.0000 C   0  0  0  0  0  0  0  0  0  0  0  0
   -3.0000    0.0000    0.0000 C   0  0  0  0  0  0  0  0  0  0  0  0
   -3.7500   -1.2990    0.0000 O   0  0  0  0  0  0  0  0  0  0  0  0
   -3.7500    1.2990    0.0000 N   0  0  0  0  0  0  0  0  0  0  0  0
   -5.2500    1.2990    0.0000 C   0  0  0  0  0  0  0  0  0  0  0  0
   -6.1317    0.0855    0.0000 N   0  0  0  0  0  0  0  0  0  0  0  0
   -7.5583    0.5490    0.0000 N   0  0  0  0  0  0  0  0  0  0  0  0
   -7.5583    2.0490    0.0000 N   0  0  0  0  0  0  0  0  0  0  0  0
   -6.1317    2.5126    0.0000 N   0  0  0  0  0  0  0  0  0  0  0  0
   -5.6682    3.9391    0.0000 C   0  0  0  0  0  0  0  0  0  0  0  0
   -4.2009    4.2510    0.0000 C   0  0  0  0  0  0  0  0  0  0  0  0
   -3.7374    5.6776    0.0000 C   0  0  0  0  0  0  0  0  0  0  0  0
   -4.7411    6.7923    0.0000 C   0  0  0  0  0  0  0  0  0  0  0  0
   -4.2776    8.2189    0.0000 C   0  0  0  0  0  0  0  0  0  0  0  0
   -5.1593    9.4324    0.0000 N   0  0  0  0  0  0  0  0  0  0  0  0
   -4.2776   10.6460    0.0000 N   0  0  0  0  0  0  0  0  0  0  0  0
   -2.8510   10.1824    0.0000 N   0  0  0  0  0  0  0  0  0  0  0  0
   -2.8510    8.6824    0.0000 N   0  0  0  0  0  0  0  0  0  0  0  0
   -1.6375    7.8008    0.0000 C   0  0  0  0  0  0  0  0  0  0  0  0
   -1.7943    6.3090    0.0000 C   0  0  0  0  0  0  0  0  0  0  0  0
   -0.5807    5.4273    0.0000 C   0  0  0  0  0  0  0  0  0  0  0  0
    0.7896    6.0374    0.0000 C   0  0  0  0  0  0  0  0  0  0  0  0
    2.0031    5.1557    0.0000 C   0  0  0  0  0  0  0  0  0  0  0  0
    1.8463    3.6639    0.0000 C   0  0  0  0  0  0  0  0  0  0  0  0
    3.0598    2.7823    0.0000 C   0  0  0  0  0  0  0  0  0  0  0  0
    4.4302    3.3924    0.0000 C   0  0  0  0  0  0  0  0  0  0  0  0
    4.5870    4.8841    0.0000 C   0  0  0  0  0  0  0  0  0  0  0  0
    3.3734    5.7658    0.0000 C   0  0  0  0  0  0  0  0  0  0  0  0
    0.9464    7.5292    0.0000 C   0  0  0  0  0  0  0  0  0  0  0  0
   -0.2671    8.4109    0.0000 C   0  0  0  0  0  0  0  0  0  0  0  0
   -0.1104    9.9026    0.0000 C   0  0  0  0  0  0  0  0  0  0  0  0
   -1.2251   10.9063    0.0000 N   0  0  0  0  0  0  0  0  0  0  0  0
   -0.6150   12.2767    0.0000 N   0  0  0  0  0  0  0  0  0  0  0  0
    0.8768   12.1199    0.0000 N   0  0  0  0  0  0  0  0  0  0  0  0
    1.1887   10.6526    0.0000 N   0  0  0  0  0  0  0  0  0  0  0  0
    2.5590   10.0425    0.0000 C   0  0  0  0  0  0  0  0  0  0  0  0
    2.7158    8.5508    0.0000 C   0  0  0  0  0  0  0  0  0  0  0  0
    4.0861    7.9406    0.0000 C   0  0  0  0  0  0  0  0  0  0  0  0
    5.2996    8.8223    0.0000 C   0  0  0  0  0  0  0  0  0  0  0  0
    5.1428   10.3141    0.0000 C   0  0  0  0  0  0  0  0  0  0  0  0
    3.7725   10.9242    0.0000 C   0  0  0  0  0  0  0  0  0  0  0  0
   -6.2083    6.4805    0.0000 C   0  0  0  0  0  0  0  0  0  0  0  0
   -7.2120    7.5952    0.0000 O   0  0  0  0  0  0  0  0  0  0  0  0
   -6.6718    5.0539    0.0000 N   0  0  0  0  0  0  0  0  0  0  0  0
   -0.7500    1.2990    0.0000 N   0  0  0  0  0  0  0  0  0  0  0  0
    0.7500    1.2990    0.0000 C   0  0  0  0  0  0  0  0  0  0  0  0
    1.5000    2.5981    0.0000 O   0  0  0  0  0  0  0  0  0  0  0  0
  1  2  1  0
  2  3  2  0
  3  4  1  0
  4  5  2  0
  5  6  1  0
  6  7  2  0
  6  8  1  0
  8  9  1  0
  9 10  2  0
 10 11  1  0
 11 12  2  0
 12 13  1  0
 13 14  1  0
 14 15  2  0
 15 16  1  0
 16 17  2  0
 17 18  1  0
 18 19  2  0
 19 20  1  0
 20 21  2  0
 21 22  1  0
 22 23  1  0
 23 24  2  0
 24 25  1  0
 25 26  2  0
 26 27  1  0
 27 28  2  0
 28 29  1  0
 29 30  2  0
 30 31  1  0
 31 32  2  0
 26 33  1  0
 33 34  2  0
 34 35  1  0
 35 36  2  0
 36 37  1  0
 37 38  2  0
 38 39  1  0
 39 40  1  0
 40 41  2  0
 41 42  1  0
 42 43  2  0
 43 44  1  0
 44 45  2  0
 17 46  1  0
 46 47  2  0
 46 48  1  0
  5 49  1  0
 49 50  1  0
 50 51  2  0
 50  2  1  0
 13  9  1  0
 48 14  1  0
 22 18  1  0
 34 23  1  0
 39 35  1  0
 45 40  1  0
 32 27  1  0
M  END
>  <Title>  (853) 
idABGUgen7

$$$$

     RDKit          2D

 27 27  0  0  0  0  0  0  0  0999 V2000
    7.7222    0.0000    0.0000 C   0  0  0  0  0  0  0  0  0  0  0  0
    6.2222    0.0000    0.0000 C   0  0  0  0  0  0  0  0  0  0  0  0
    6.0414   -1.4891    0.0000 C   0  0  0  0  0  0  0  0  0  0  0  0
    5.5095   -2.8916    0.0000 C   0  0  0  0  0  0  0  0  0  0  0  0
    4.6574   -4.1261    0.0000 C   0  0  0  0  0  0  0  0  0  0  0  0
    3.5346   -5.1207    0.0000 C   0  0  0  0  0  0  0  0  0  0  0  0
    2.2064   -5.8178    0.0000 C   0  0  0  0  0  0  0  0  0  0  0  0
    0.7500   -6.1768    0.0000 C   0  0  0  0  0  0  0  0  0  0  0  0
   -0.7500   -6.1768    0.0000 C   0  0  0  0  0  0  0  0  0  0  0  0
   -2.2064   -5.8178    0.0000 C   0  0  0  0  0  0  0  0  0  0  0  0
   -3.5346   -5.1207    0.0000 C   0  0  0  0  0  0  0  0  0  0  0  0
   -4.6574   -4.1261    0.0000 C   0  0  0  0  0  0  0  0  0  0  0  0
   -5.5095   -2.8916    0.0000 C   0  0  0  0  0  0  0  0  0  0  0  0
   -6.0414   -1.4891    0.0000 C   0  0  0  0  0  0  0  0  0  0  0  0
   -6.2222    0.0000    0.0000 C   0  0  0  0  0  0  0  0  0  0  0  0
   -6.0414    1.4891    0.0000 C   0  0  0  0  0  0  0  0  0  0  0  0
   -5.5095    2.8916    0.0000 C   0  0  0  0  0  0  0  0  0  0  0  0
   -4.6574    4.1261    0.0000 C   0  0  0  0  0  0  0  0  0  0  0  0
   -3.5346    5.1207    0.0000 C   0  0  0  0  0  0  0  0  0  0  0  0
   -2.2064    5.8178    0.0000 C   0  0  0  0  0  0  0  0  0  0  0  0
   -0.7500    6.1768    0.0000 C   0  0  0  0  0  0  0  0  0  0  0  0
    0.7500    6.1768    0.0000 C   0  0  0  0  0  0  0  0  0  0  0  0
    2.2064    5.8178    0.0000 C   0  0  0  0  0  0  0  0  0  0  0  0
    3.5346    5.1207    0.0000 C   0  0  0  0  0  0  0  0  0  0  0  0
    4.6574    4.1261    0.0000 C   0  0  0  0  0  0  0  0  0  0  0  0
    5.5095    2.8916    0.0000 C   0  0  0  0  0  0  0  0  0  0  0  0
    6.0414    1.4891    0.0000 C   0  0  0  0  0  0  0  0  0  0  0  0
  1  2  1  0
  2  3  2  0
  3  4  1  0
  4  5  2  0
  5  6  1  0
  6  7  2  0
  7  8  1  0
  8  9  2  0
  9 10  1  0
 10 11  2  0
 11 12  1  0
 12 13  2  0
 13 14  1  0
 14 15  2  0
 15 16  1  0
 16 17  2  0
 17 18  1  0
 18 19  2  0
 19 20  1  0
 20 21  2  0
 21 22  1  0
 22 23  2  0
 23 24  1  0
 24 25  2  0
 25 26  1  0
 26 27  2  0
 27  2  1  0
M  END
>  <Title>  (854) 
idABGVgen7

$$$$

     RDKit          2D

  7  7  0  0  0  0  0  0  0  0999 V2000
    3.0000    0.0000    0.0000 O   0  0  0  0  0  0  0  0  0  0  0  0
    1.5000    0.0000    0.0000 C   0  0  0  0  0  0  0  0  0  0  0  0
    0.7500   -1.2990    0.0000 C   0  0  0  0  0  0  0  0  0  0  0  0
   -0.7500   -1.2990    0.0000 C   0  0  0  0  0  0  0  0  0  0  0  0
   -1.5000    0.0000    0.0000 C   0  0  0  0  0  0  0  0  0  0  0  0
   -0.7500    1.2990    0.0000 C   0  0  0  0  0  0  0  0  0  0  0  0
    0.7500    1.2990    0.0000 C   0  0  0  0  0  0  0  0  0  0  0  0
  1  2  1  0
  2  3  1  0
  3  4  2  0
  4  5  1  0
  5  6  2  0
  6  7  1  0
  7  2  1  0
M  END
>  <Title>  (855) 
idABGWgen7

$$$$

     RDKit          2D

 27 30  0  0  0  0  0  0  0  0999 V2000
    3.0000    0.0000    0.0000 C   0  0  0  0  0  0  0  0  0  0  0  0
    1.5000    0.0000    0.0000 C   0  0  0  0  0  0  0  0  0  0  0  0
    0.7500   -1.2990    0.0000 C   0  0  0  0  0  0  0  0  0  0  0  0
   -0.7500   -1.2990    0.0000 C   0  0  0  0  0  0  0  0  0  0  0  0
   -1.5000    0.0000    0.0000 C   0  0  0  0  0  0  0  0  0  0  0  0
   -3.0000    0.0000    0.0000 C   0  0  0  0  0  0  0  0  0  0  0  0
   -3.8817   -1.2135    0.0000 N   0  0  0  0  0  0  0  0  0  0  0  0
   -5.3083   -0.7500    0.0000 N   0  0  0  0  0  0  0  0  0  0  0  0
   -5.3083    0.7500    0.0000 N   0  0  0  0  0  0  0  0  0  0  0  0
   -3.8817    1.2135    0.0000 N   0  0  0  0  0  0  0  0  0  0  0  0
   -3.4182    2.6401    0.0000 C   0  0  0  0  0  0  0  0  0  0  0  0
   -1.9509    2.9520    0.0000 C   0  0  0  0  0  0  0  0  0  0  0  0
   -1.4874    4.3786    0.0000 C   0  0  0  0  0  0  0  0  0  0  0  0
   -2.4911    5.4933    0.0000 C   0  0  0  0  0  0  0  0  0  0  0  0
   -3.9583    5.1814    0.0000 C   0  0  0  0  0  0  0  0  0  0  0  0
   -4.4218    3.7548    0.0000 C   0  0  0  0  0  0  0  0  0  0  0  0
   -5.8891    3.4430    0.0000 N   0  0  0  0  0  0  0  0  0  0  0  0
   -6.8928    4.5577    0.0000 C   0  0  0  0  0  0  0  0  0  0  0  0
   -6.4292    5.9843    0.0000 O   0  0  0  0  0  0  0  0  0  0  0  0
   -8.3600    4.2458    0.0000 C   0  0  0  0  0  0  0  0  0  0  0  0
   -9.3637    5.3605    0.0000 C   0  0  0  0  0  0  0  0  0  0  0  0
  -10.8309    5.0487    0.0000 C   0  0  0  0  0  0  0  0  0  0  0  0
  -11.2944    3.6221    0.0000 C   0  0  0  0  0  0  0  0  0  0  0  0
  -10.2907    2.5074    0.0000 C   0  0  0  0  0  0  0  0  0  0  0  0
   -8.8235    2.8192    0.0000 C   0  0  0  0  0  0  0  0  0  0  0  0
   -0.7500    1.2990    0.0000 C   0  0  0  0  0  0  0  0  0  0  0  0
    0.7500    1.2990    0.0000 C   0  0  0  0  0  0  0  0  0  0  0  0
  1  2  1  0
  2  3  2  0
  3  4  1  0
  4  5  2  0
  5  6  1  0
  6  7  2  0
  7  8  1  0
  8  9  2  0
  9 10  1  0
 10 11  1  0
 11 12  2  0
 12 13  1  0
 13 14  2  0
 14 15  1  0
 15 16  2  0
 16 17  1  0
 17 18  1  0
 18 19  2  0
 18 20  1  0
 20 21  2  0
 21 22  1  0
 22 23  2  0
 23 24  1  0
 24 25  2  0
  5 26  1  0
 26 27  2  0
 27  2  1  0
 10  6  1  0
 16 11  1  0
 25 20  1  0
M  END
>  <Title>  (856) 
idABGXgen7

$$$$

     RDKit          2D

 30 34  0  0  0  0  0  0  0  0999 V2000
    3.0000    0.0000    0.0000 C   0  0  0  0  0  0  0  0  0  0  0  0
    1.5000    0.0000    0.0000 C   0  0  0  0  0  0  0  0  0  0  0  0
    0.7500    1.2990    0.0000 C   0  0  0  0  0  0  0  0  0  0  0  0
   -0.7500    1.2990    0.0000 C   0  0  0  0  0  0  0  0  0  0  0  0
   -1.5000    0.0000    0.0000 C   0  0  0  0  0  0  0  0  0  0  0  0
   -3.0000    0.0000    0.0000 C   0  0  0  0  0  0  0  0  0  0  0  0
   -3.8817   -1.2135    0.0000 N   0  0  0  0  0  0  0  0  0  0  0  0
   -5.3083   -0.7500    0.0000 N   0  0  0  0  0  0  0  0  0  0  0  0
   -5.3083    0.7500    0.0000 N   0  0  0  0  0  0  0  0  0  0  0  0
   -3.8817    1.2135    0.0000 N   0  0  0  0  0  0  0  0  0  0  0  0
   -3.4182    2.6401    0.0000 C   0  0  0  0  0  0  0  0  0  0  0  0
   -1.9509    2.9520    0.0000 C   0  0  0  0  0  0  0  0  0  0  0  0
   -1.4874    4.3786    0.0000 C   0  0  0  0  0  0  0  0  0  0  0  0
   -2.4911    5.4933    0.0000 C   0  0  0  0  0  0  0  0  0  0  0  0
   -2.0276    6.9199    0.0000 N   0  0  0  0  0  0  0  0  0  0  0  0
   -2.9093    8.1334    0.0000 N   0  0  0  0  0  0  0  0  0  0  0  0
   -2.0276    9.3469    0.0000 N   0  0  0  0  0  0  0  0  0  0  0  0
   -0.6010    8.8834    0.0000 N   0  0  0  0  0  0  0  0  0  0  0  0
   -0.6010    7.3834    0.0000 C   0  0  0  0  0  0  0  0  0  0  0  0
    0.6125    6.5017    0.0000 C   0  0  0  0  0  0  0  0  0  0  0  0
    0.4557    5.0099    0.0000 C   0  0  0  0  0  0  0  0  0  0  0  0
    1.6693    4.1283    0.0000 C   0  0  0  0  0  0  0  0  0  0  0  0
    3.0396    4.7384    0.0000 C   0  0  0  0  0  0  0  0  0  0  0  0
    3.1964    6.2301    0.0000 C   0  0  0  0  0  0  0  0  0  0  0  0
    1.9829    7.1118    0.0000 C   0  0  0  0  0  0  0  0  0  0  0  0
   -3.9583    5.1814    0.0000 C   0  0  0  0  0  0  0  0  0  0  0  0
   -4.4218    3.7548    0.0000 C   0  0  0  0  0  0  0  0  0  0  0  0
   -0.7500   -1.2990    0.0000 C   0  0  0  0  0  0  0  0  0  0  0  0
   -1.5000   -2.5981    0.0000 O   0  0  0  0  0  0  0  0  0  0  0  0
    0.7500   -1.2990    0.0000 N   0  0  0  0  0  0  0  0  0  0  0  0
  1  2  1  0
  2  3  2  0
  3  4  1  0
  4  5  2  0
  5  6  1  0
  6  7  2  0
  7  8  1  0
  8  9  2  0
  9 10  1  0
 10 11  1  0
 11 12  2  0
 12 13  1  0
 13 14  2  0
 14 15  1  0
 15 16  1  0
 16 17  2  0
 17 18  1  0
 18 19  2  0
 19 20  1  0
 20 21  2  0
 21 22  1  0
 22 23  2  0
 23 24  1  0
 24 25  2  0
 14 26  1  0
 26 27  2  0
  5 28  1  0
 28 29  2  0
 28 30  1  0
 30  2  1  0
 10  6  1  0
 27 11  1  0
 19 15  1  0
 25 20  1  0
M  END
>  <Title>  (857) 
idABGYgen7

$$$$

     RDKit          2D

 22 25  0  0  0  0  0  0  0  0999 V2000
    2.2500   -9.0933    0.0000 C   0  0  0  0  0  0  0  0  0  0  0  0
    3.0000   -7.7942    0.0000 O   0  0  0  0  0  0  0  0  0  0  0  0
    2.2500   -6.4952    0.0000 C   0  0  0  0  0  0  0  0  0  0  0  0
    0.7500   -6.4952    0.0000 C   0  0  0  0  0  0  0  0  0  0  0  0
   -0.0000   -5.1962    0.0000 C   0  0  0  0  0  0  0  0  0  0  0  0
    0.7500   -3.8971    0.0000 C   0  0  0  0  0  0  0  0  0  0  0  0
    2.2500   -3.8971    0.0000 C   0  0  0  0  0  0  0  0  0  0  0  0
    3.0000   -5.1962    0.0000 C   0  0  0  0  0  0  0  0  0  0  0  0
    3.0000   -2.5981    0.0000 C   0  0  0  0  0  0  0  0  0  0  0  0
    2.2500   -1.2990    0.0000 C   0  0  0  0  0  0  0  0  0  0  0  0
    1.8079    0.1343    0.0000 C   0  0  0  0  0  0  0  0  0  0  0  0
    0.4116    0.6823    0.0000 C   0  0  0  0  0  0  0  0  0  0  0  0
   -0.8875   -0.0677    0.0000 C   0  0  0  0  0  0  0  0  0  0  0  0
   -1.1110   -1.5509    0.0000 C   0  0  0  0  0  0  0  0  0  0  0  0
   -0.0000   -2.5981    0.0000 C   0  0  0  0  0  0  0  0  0  0  0  0
    0.7500   -1.2990    0.0000 C   0  0  0  0  0  0  0  0  0  0  0  0
    0.6861   -1.1925    0.0000 C   0  0  0  0  0  0  0  0  0  0  0  0
    0.3131   -0.5592    0.0000 C   0  0  0  0  0  0  0  0  0  0  0  0
    1.0000   -1.7321    0.0000 C   0  0  0  0  0  0  0  0  0  0  0  0
    0.3278   -0.5507    0.0000 C   0  0  0  0  0  0  0  0  0  0  0  0
    0.6897   -1.1904    0.0000 C   0  0  0  0  0  0  0  0  0  0  0  0
   -1.5000   -2.5981    0.0000 O   0  0  0  0  0  0  0  0  0  0  0  0
  1  2  1  0
  2  3  1  0
  3  4  2  0
  4  5  1  0
  5  6  2  0
  6  7  1  0
  7  8  2  0
  7  9  1  0
  9 10  1  0
 10 11  2  0
 11 12  1  0
 12 13  2  0
 13 14  1  0
 14 15  2  0
 15 16  1  0
 16 17  1  0
 17 18  1  0
 18 19  2  0
 19 20  1  0
 20 21  2  0
 21 22  1  0
  8  3  1  0
 16 10  1  0
 15  6  1  0
 21 16  1  0
M  END
>  <Title>  (858) 
idABGZgen7

$$$$

     RDKit          2D

 14 14  0  0  0  0  0  0  0  0999 V2000
    5.1478   -1.2990    0.0000 O   0  0  0  0  0  0  0  0  0  0  0  0
    4.3978    0.0000    0.0000 C   0  0  0  0  0  0  0  0  0  0  0  0
    2.8978    0.0000    0.0000 C   0  0  0  0  0  0  0  0  0  0  0  0
    2.5095   -1.4489    0.0000 C   0  0  0  0  0  0  0  0  0  0  0  0
    1.4489   -2.5095    0.0000 C   0  0  0  0  0  0  0  0  0  0  0  0
   -0.0000   -2.8978    0.0000 C   0  0  0  0  0  0  0  0  0  0  0  0
   -1.4489   -2.5095    0.0000 C   0  0  0  0  0  0  0  0  0  0  0  0
   -2.5095   -1.4489    0.0000 C   0  0  0  0  0  0  0  0  0  0  0  0
   -2.8978    0.0000    0.0000 C   0  0  0  0  0  0  0  0  0  0  0  0
   -2.5095    1.4489    0.0000 C   0  0  0  0  0  0  0  0  0  0  0  0
   -1.4489    2.5095    0.0000 C   0  0  0  0  0  0  0  0  0  0  0  0
    0.0000    2.8978    0.0000 C   0  0  0  0  0  0  0  0  0  0  0  0
    1.4489    2.5095    0.0000 C   0  0  0  0  0  0  0  0  0  0  0  0
    2.5095    1.4489    0.0000 C   0  0  0  0  0  0  0  0  0  0  0  0
  1  2  1  0
  2  3  1  0
  3  4  2  0
  4  5  1  0
  5  6  2  0
  6  7  1  0
  7  8  2  0
  8  9  1  0
  9 10  2  0
 10 11  1  0
 11 12  2  0
 12 13  1  0
 13 14  1  0
 14  3  1  0
M  END
>  <Title>  (859) 
idABHAgen7

$$$$

     RDKit          2D

 14 14  0  0  0  0  0  0  0  0999 V2000
    5.1478   -1.2990    0.0000 C   0  0  0  0  0  0  0  0  0  0  0  0
    4.3978    0.0000    0.0000 O   0  0  0  0  0  0  0  0  0  0  0  0
    2.8978    0.0000    0.0000 C   0  0  0  0  0  0  0  0  0  0  0  0
    2.5095   -1.4489    0.0000 C   0  0  0  0  0  0  0  0  0  0  0  0
    1.4489   -2.5095    0.0000 C   0  0  0  0  0  0  0  0  0  0  0  0
   -0.0000   -2.8978    0.0000 C   0  0  0  0  0  0  0  0  0  0  0  0
   -1.4489   -2.5095    0.0000 C   0  0  0  0  0  0  0  0  0  0  0  0
   -2.5095   -1.4489    0.0000 C   0  0  0  0  0  0  0  0  0  0  0  0
   -2.8978    0.0000    0.0000 C   0  0  0  0  0  0  0  0  0  0  0  0
   -2.5095    1.4489    0.0000 C   0  0  0  0  0  0  0  0  0  0  0  0
   -1.4489    2.5095    0.0000 C   0  0  0  0  0  0  0  0  0  0  0  0
    0.0000    2.8978    0.0000 C   0  0  0  0  0  0  0  0  0  0  0  0
    1.4489    2.5095    0.0000 C   0  0  0  0  0  0  0  0  0  0  0  0
    2.5095    1.4489    0.0000 C   0  0  0  0  0  0  0  0  0  0  0  0
  1  2  1  0
  2  3  1  0
  3  4  1  0
  4  5  1  0
  5  6  1  0
  6  7  1  0
  7  8  1  0
  8  9  1  0
  9 10  1  0
 10 11  1  0
 11 12  1  0
 12 13  1  0
 13 14  1  0
 14  3  1  0
M  END
>  <Title>  (860) 
idABHBgen7

$$$$

     RDKit          2D

 28 31  0  0  0  0  0  0  0  0999 V2000
    3.7500   -1.2990    0.0000 C   0  0  0  0  0  0  0  0  0  0  0  0
    3.0000    0.0000    0.0000 O   0  0  0  0  0  0  0  0  0  0  0  0
    1.5000    0.0000    0.0000 C   0  0  0  0  0  0  0  0  0  0  0  0
    0.7500   -1.2990    0.0000 C   0  0  0  0  0  0  0  0  0  0  0  0
   -0.7500   -1.2990    0.0000 C   0  0  0  0  0  0  0  0  0  0  0  0
   -1.5000    0.0000    0.0000 C   0  0  0  0  0  0  0  0  0  0  0  0
   -3.0000    0.0000    0.0000 C   0  0  0  0  0  0  0  0  0  0  0  0
   -3.7500   -1.2990    0.0000 O   0  0  0  0  0  0  0  0  0  0  0  0
   -3.7500    1.2990    0.0000 N   0  0  0  0  0  0  0  0  0  0  0  0
   -5.2500    1.2990    0.0000 C   0  0  0  0  0  0  0  0  0  0  0  0
   -6.1317    0.0855    0.0000 N   0  0  0  0  0  0  0  0  0  0  0  0
   -7.5583    0.5490    0.0000 N   0  0  0  0  0  0  0  0  0  0  0  0
   -7.5583    2.0490    0.0000 N   0  0  0  0  0  0  0  0  0  0  0  0
   -6.1317    2.5126    0.0000 N   0  0  0  0  0  0  0  0  0  0  0  0
   -5.6682    3.9391    0.0000 C   0  0  0  0  0  0  0  0  0  0  0  0
   -4.2009    4.2510    0.0000 C   0  0  0  0  0  0  0  0  0  0  0  0
   -3.7374    5.6776    0.0000 C   0  0  0  0  0  0  0  0  0  0  0  0
   -4.7411    6.7923    0.0000 C   0  0  0  0  0  0  0  0  0  0  0  0
   -4.2776    8.2189    0.0000 C   0  0  0  0  0  0  0  0  0  0  0  0
   -2.8104    8.5308    0.0000 C   0  0  0  0  0  0  0  0  0  0  0  0
   -2.3468    9.9574    0.0000 C   0  0  0  0  0  0  0  0  0  0  0  0
   -3.3505   11.0721    0.0000 C   0  0  0  0  0  0  0  0  0  0  0  0
   -4.8177   10.7602    0.0000 C   0  0  0  0  0  0  0  0  0  0  0  0
   -5.2813    9.3336    0.0000 C   0  0  0  0  0  0  0  0  0  0  0  0
   -6.2083    6.4805    0.0000 C   0  0  0  0  0  0  0  0  0  0  0  0
   -6.6718    5.0539    0.0000 C   0  0  0  0  0  0  0  0  0  0  0  0
   -0.7500    1.2990    0.0000 C   0  0  0  0  0  0  0  0  0  0  0  0
    0.7500    1.2990    0.0000 N   0  0  0  0  0  0  0  0  0  0  0  0
  1  2  1  0
  2  3  1  0
  3  4  2  0
  4  5  1  0
  5  6  2  0
  6  7  1  0
  7  8  2  0
  7  9  1  0
  9 10  1  0
 10 11  2  0
 11 12  1  0
 12 13  2  0
 13 14  1  0
 14 15  1  0
 15 16  2  0
 16 17  1  0
 17 18  2  0
 18 19  1  0
 19 20  2  0
 20 21  1  0
 21 22  2  0
 22 23  1  0
 23 24  2  0
 18 25  1  0
 25 26  2  0
  6 27  1  0
 27 28  1  0
 28  3  1  0
 14 10  1  0
 26 15  1  0
 24 19  1  0
M  END
>  <Title>  (861) 
idABHCgen7

$$$$

     RDKit          2D

 35 39  0  0  0  0  0  0  0  0999 V2000
    8.0965    7.4489    0.0000 C   0  0  0  0  0  0  0  0  0  0  0  0
    7.8951    5.9624    0.0000 C   0  0  0  0  0  0  0  0  0  0  0  0
    9.0817    5.0449    0.0000 C   0  0  0  0  0  0  0  0  0  0  0  0
    8.8804    3.5584    0.0000 C   0  0  0  0  0  0  0  0  0  0  0  0
    7.4924    2.9896    0.0000 C   0  0  0  0  0  0  0  0  0  0  0  0
    7.2911    1.5032    0.0000 C   0  0  0  0  0  0  0  0  0  0  0  0
    8.4777    0.5856    0.0000 O   0  0  0  0  0  0  0  0  0  0  0  0
    5.9031    0.9343    0.0000 N   0  0  0  0  0  0  0  0  0  0  0  0
    5.7018   -0.5521    0.0000 C   0  0  0  0  0  0  0  0  0  0  0  0
    6.7860   -1.5887    0.0000 N   0  0  0  0  0  0  0  0  0  0  0  0
    6.1352   -2.9401    0.0000 N   0  0  0  0  0  0  0  0  0  0  0  0
    4.6487   -2.7388    0.0000 N   0  0  0  0  0  0  0  0  0  0  0  0
    4.3809   -1.2629    0.0000 N   0  0  0  0  0  0  0  0  0  0  0  0
    3.0294   -0.6121    0.0000 C   0  0  0  0  0  0  0  0  0  0  0  0
    3.0294    0.8879    0.0000 C   0  0  0  0  0  0  0  0  0  0  0  0
    1.8567    1.8232    0.0000 C   0  0  0  0  0  0  0  0  0  0  0  0
    0.3943    1.2135    0.0000 C   0  0  0  0  0  0  0  0  0  0  0  0
    1.2760    0.0000    0.0000 C   0  0  0  0  0  0  0  0  0  0  0  0
    0.3943   -1.2135    0.0000 C   0  0  0  0  0  0  0  0  0  0  0  0
    1.8567   -1.5473    0.0000 C   0  0  0  0  0  0  0  0  0  0  0  0
    2.1905   -3.0097    0.0000 O   0  0  0  0  0  0  0  0  0  0  0  0
   -1.0323   -0.7500    0.0000 N   0  0  0  0  0  0  0  0  0  0  0  0
   -2.2458   -1.6317    0.0000 C   0  0  0  0  0  0  0  0  0  0  0  0
   -3.6161   -1.0216    0.0000 C   0  0  0  0  0  0  0  0  0  0  0  0
   -4.8297   -1.9033    0.0000 O   0  0  0  0  0  0  0  0  0  0  0  0
   -6.2000   -1.2931    0.0000 C   0  0  0  0  0  0  0  0  0  0  0  0
   -6.3568    0.1986    0.0000 C   0  0  0  0  0  0  0  0  0  0  0  0
   -7.7271    0.8087    0.0000 C   0  0  0  0  0  0  0  0  0  0  0  0
   -8.9406   -0.0729    0.0000 C   0  0  0  0  0  0  0  0  0  0  0  0
   -8.7838   -1.5647    0.0000 C   0  0  0  0  0  0  0  0  0  0  0  0
   -7.4135   -2.1748    0.0000 C   0  0  0  0  0  0  0  0  0  0  0  0
   -1.0323    0.7500    0.0000 C   0  0  0  0  0  0  0  0  0  0  0  0
    6.3058    3.9072    0.0000 C   0  0  0  0  0  0  0  0  0  0  0  0
    4.9179    3.3383    0.0000 O   0  0  0  0  0  0  0  0  0  0  0  0
    6.5072    5.3936    0.0000 N   0  0  0  0  0  0  0  0  0  0  0  0
  1  2  1  0
  2  3  2  0
  3  4  1  0
  4  5  2  0
  5  6  1  0
  6  7  2  0
  6  8  1  0
  8  9  1  0
  9 10  2  0
 10 11  1  0
 11 12  2  0
 12 13  1  0
 13 14  1  0
 14 15  2  0
 15 16  1  0
 16 17  2  0
 17 18  1  0
 18 19  2  0
 19 20  1  0
 20 21  2  0
 19 22  1  0
 22 23  1  0
 23 24  1  0
 24 25  1  0
 25 26  1  0
 26 27  2  0
 27 28  1  0
 28 29  2  0
 29 30  1  0
 30 31  2  0
 22 32  1  0
  5 33  1  0
 33 34  2  0
 33 35  1  0
 35  2  1  0
 13  9  1  0
 20 14  1  0
 31 26  1  0
 32 17  1  0
M  END
>  <Title>  (862) 
idABHDgen7

$$$$

     RDKit          2D

 12 13  0  0  0  0  0  0  0  0999 V2000
   -0.0000   -6.0850    0.0000 O   0  0  0  0  0  0  0  0  0  0  0  0
   -0.0000   -4.5850    0.0000 C   0  0  0  0  0  0  0  0  0  0  0  0
    1.3515   -3.9342    0.0000 C   0  0  0  0  0  0  0  0  0  0  0  0
    1.6852   -2.4718    0.0000 C   0  0  0  0  0  0  0  0  0  0  0  0
    0.7500   -1.2990    0.0000 C   0  0  0  0  0  0  0  0  0  0  0  0
    1.5000    0.0000    0.0000 C   0  0  0  0  0  0  0  0  0  0  0  0
    0.7500    1.2990    0.0000 C   0  0  0  0  0  0  0  0  0  0  0  0
   -0.7500    1.2990    0.0000 C   0  0  0  0  0  0  0  0  0  0  0  0
   -1.5000    0.0000    0.0000 C   0  0  0  0  0  0  0  0  0  0  0  0
   -0.7500   -1.2990    0.0000 C   0  0  0  0  0  0  0  0  0  0  0  0
   -1.6852   -2.4718    0.0000 N   0  0  0  0  0  0  0  0  0  0  0  0
   -1.3515   -3.9342    0.0000 N   0  0  0  0  0  0  0  0  0  0  0  0
  1  2  1  0
  2  3  2  0
  3  4  1  0
  4  5  2  0
  5  6  1  0
  6  7  2  0
  7  8  1  0
  8  9  2  0
  9 10  1  0
 10 11  2  0
 11 12  1  0
 12  2  1  0
 10  5  1  0
M  END
>  <Title>  (863) 
idABHEgen7

$$$$

     RDKit          2D

 28 31  0  0  0  0  0  0  0  0999 V2000
    3.0000    0.0000    0.0000 C   0  0  0  0  0  0  0  0  0  0  0  0
    1.5000    0.0000    0.0000 C   0  0  0  0  0  0  0  0  0  0  0  0
    0.7500   -1.2990    0.0000 C   0  0  0  0  0  0  0  0  0  0  0  0
   -0.7500   -1.2990    0.0000 C   0  0  0  0  0  0  0  0  0  0  0  0
   -1.5000    0.0000    0.0000 C   0  0  0  0  0  0  0  0  0  0  0  0
   -3.0000    0.0000    0.0000 C   0  0  0  0  0  0  0  0  0  0  0  0
   -3.7500    1.2990    0.0000 C   0  0  0  0  0  0  0  0  0  0  0  0
   -5.2500    1.2990    0.0000 C   0  0  0  0  0  0  0  0  0  0  0  0
   -6.0000    0.0000    0.0000 C   0  0  0  0  0  0  0  0  0  0  0  0
   -7.5000    0.0000    0.0000 C   0  0  0  0  0  0  0  0  0  0  0  0
   -8.2500   -1.2990    0.0000 O   0  0  0  0  0  0  0  0  0  0  0  0
   -8.2500    1.2990    0.0000 N   0  0  0  0  0  0  0  0  0  0  0  0
   -9.7500    1.2990    0.0000 C   0  0  0  0  0  0  0  0  0  0  0  0
  -10.6317    0.0855    0.0000 N   0  0  0  0  0  0  0  0  0  0  0  0
  -12.0583    0.5490    0.0000 N   0  0  0  0  0  0  0  0  0  0  0  0
  -12.0583    2.0490    0.0000 N   0  0  0  0  0  0  0  0  0  0  0  0
  -10.6317    2.5126    0.0000 N   0  0  0  0  0  0  0  0  0  0  0  0
  -10.1682    3.9391    0.0000 C   0  0  0  0  0  0  0  0  0  0  0  0
   -8.7009    4.2510    0.0000 C   0  0  0  0  0  0  0  0  0  0  0  0
   -8.2374    5.6776    0.0000 C   0  0  0  0  0  0  0  0  0  0  0  0
   -9.2411    6.7923    0.0000 C   0  0  0  0  0  0  0  0  0  0  0  0
  -10.7083    6.4805    0.0000 C   0  0  0  0  0  0  0  0  0  0  0  0
  -11.1718    5.0539    0.0000 C   0  0  0  0  0  0  0  0  0  0  0  0
   -5.2500   -1.2990    0.0000 C   0  0  0  0  0  0  0  0  0  0  0  0
   -3.7500   -1.2990    0.0000 C   0  0  0  0  0  0  0  0  0  0  0  0
   -0.7500    1.2990    0.0000 C   0  0  0  0  0  0  0  0  0  0  0  0
   -1.5000    2.5981    0.0000 O   0  0  0  0  0  0  0  0  0  0  0  0
    0.7500    1.2990    0.0000 N   0  0  0  0  0  0  0  0  0  0  0  0
  1  2  1  0
  2  3  2  0
  3  4  1  0
  4  5  2  0
  5  6  1  0
  6  7  2  0
  7  8  1  0
  8  9  2  0
  9 10  1  0
 10 11  2  0
 10 12  1  0
 12 13  1  0
 13 14  2  0
 14 15  1  0
 15 16  2  0
 16 17  1  0
 17 18  1  0
 18 19  2  0
 19 20  1  0
 20 21  2  0
 21 22  1  0
 22 23  2  0
  9 24  1  0
 24 25  2  0
  5 26  1  0
 26 27  2  0
 26 28  1  0
 28  2  1  0
 25  6  1  0
 17 13  1  0
 23 18  1  0
M  END
>  <Title>  (864) 
idABHFgen7

$$$$

     RDKit          2D

 13 13  0  0  0  0  0  0  0  0999 V2000
    4.3978    0.0000    0.0000 O   0  0  0  0  0  0  0  0  0  0  0  0
    2.8978    0.0000    0.0000 C   0  0  0  0  0  0  0  0  0  0  0  0
    2.5095   -1.4489    0.0000 C   0  0  0  0  0  0  0  0  0  0  0  0
    1.4489   -2.5095    0.0000 C   0  0  0  0  0  0  0  0  0  0  0  0
   -0.0000   -2.8978    0.0000 C   0  0  0  0  0  0  0  0  0  0  0  0
   -1.4489   -2.5095    0.0000 C   0  0  0  0  0  0  0  0  0  0  0  0
   -2.5095   -1.4489    0.0000 C   0  0  0  0  0  0  0  0  0  0  0  0
   -2.8978    0.0000    0.0000 C   0  0  0  0  0  0  0  0  0  0  0  0
   -2.5095    1.4489    0.0000 C   0  0  0  0  0  0  0  0  0  0  0  0
   -1.4489    2.5095    0.0000 C   0  0  0  0  0  0  0  0  0  0  0  0
    0.0000    2.8978    0.0000 C   0  0  0  0  0  0  0  0  0  0  0  0
    1.4489    2.5095    0.0000 C   0  0  0  0  0  0  0  0  0  0  0  0
    2.5095    1.4489    0.0000 C   0  0  0  0  0  0  0  0  0  0  0  0
  1  2  1  0
  2  3  2  0
  3  4  1  0
  4  5  2  0
  5  6  1  0
  6  7  2  0
  7  8  1  0
  8  9  2  0
  9 10  1  0
 10 11  2  0
 11 12  1  0
 12 13  2  0
 13  2  1  0
M  END
>  <Title>  (865) 
idABHGgen7

$$$$

     RDKit          2D

 62 70  0  0  0  0  0  0  0  0999 V2000
    3.0000    0.0000    0.0000 C   0  0  0  0  0  0  0  0  0  0  0  0
    1.5000    0.0000    0.0000 C   0  0  0  0  0  0  0  0  0  0  0  0
    0.7500   -1.2990    0.0000 C   0  0  0  0  0  0  0  0  0  0  0  0
   -0.7500   -1.2990    0.0000 C   0  0  0  0  0  0  0  0  0  0  0  0
   -1.5000    0.0000    0.0000 C   0  0  0  0  0  0  0  0  0  0  0  0
   -3.0000    0.0000    0.0000 C   0  0  0  0  0  0  0  0  0  0  0  0
   -3.7500   -1.2990    0.0000 O   0  0  0  0  0  0  0  0  0  0  0  0
   -3.7500    1.2990    0.0000 N   0  0  0  0  0  0  0  0  0  0  0  0
   -5.2500    1.2990    0.0000 C   0  0  0  0  0  0  0  0  0  0  0  0
   -6.1317    0.0855    0.0000 N   0  0  0  0  0  0  0  0  0  0  0  0
   -7.5583    0.5490    0.0000 N   0  0  0  0  0  0  0  0  0  0  0  0
   -7.5583    2.0490    0.0000 N   0  0  0  0  0  0  0  0  0  0  0  0
   -6.1317    2.5126    0.0000 N   0  0  0  0  0  0  0  0  0  0  0  0
   -5.6682    3.9391    0.0000 C   0  0  0  0  0  0  0  0  0  0  0  0
   -4.2009    4.2510    0.0000 C   0  0  0  0  0  0  0  0  0  0  0  0
   -3.7374    5.6776    0.0000 C   0  0  0  0  0  0  0  0  0  0  0  0
   -4.7411    6.7923    0.0000 C   0  0  0  0  0  0  0  0  0  0  0  0
   -4.2776    8.2189    0.0000 C   0  0  0  0  0  0  0  0  0  0  0  0
   -5.2813    9.3336    0.0000 O   0  0  0  0  0  0  0  0  0  0  0  0
   -2.8104    8.5308    0.0000 N   0  0  0  0  0  0  0  0  0  0  0  0
   -2.3468    9.9574    0.0000 C   0  0  0  0  0  0  0  0  0  0  0  0
   -3.2285   11.1709    0.0000 N   0  0  0  0  0  0  0  0  0  0  0  0
   -2.3468   12.3844    0.0000 N   0  0  0  0  0  0  0  0  0  0  0  0
   -0.9202   11.9209    0.0000 N   0  0  0  0  0  0  0  0  0  0  0  0
   -0.9202   10.4209    0.0000 N   0  0  0  0  0  0  0  0  0  0  0  0
    0.2933    9.5392    0.0000 C   0  0  0  0  0  0  0  0  0  0  0  0
    0.1365    8.0474    0.0000 C   0  0  0  0  0  0  0  0  0  0  0  0
    1.3500    7.1657    0.0000 C   0  0  0  0  0  0  0  0  0  0  0  0
    2.7203    7.7758    0.0000 C   0  0  0  0  0  0  0  0  0  0  0  0
    2.8771    9.2676    0.0000 C   0  0  0  0  0  0  0  0  0  0  0  0
    1.6636   10.1493    0.0000 C   0  0  0  0  0  0  0  0  0  0  0  0
   -6.2083    6.4805    0.0000 C   0  0  0  0  0  0  0  0  0  0  0  0
   -6.6718    5.0539    0.0000 C   0  0  0  0  0  0  0  0  0  0  0  0
   -8.1391    4.7420    0.0000 C   0  0  0  0  0  0  0  0  0  0  0  0
   -9.1428    5.8567    0.0000 C   0  0  0  0  0  0  0  0  0  0  0  0
  -10.6100    5.5448    0.0000 C   0  0  0  0  0  0  0  0  0  0  0  0
  -11.0735    4.1183    0.0000 C   0  0  0  0  0  0  0  0  0  0  0  0
  -12.5407    3.8064    0.0000 C   0  0  0  0  0  0  0  0  0  0  0  0
  -13.0043    2.3798    0.0000 O   0  0  0  0  0  0  0  0  0  0  0  0
  -13.5444    4.9211    0.0000 N   0  0  0  0  0  0  0  0  0  0  0  0
  -15.0117    4.6092    0.0000 C   0  0  0  0  0  0  0  0  0  0  0  0
  -15.4752    3.1827    0.0000 C   0  0  0  0  0  0  0  0  0  0  0  0
  -16.9424    2.8708    0.0000 C   0  0  0  0  0  0  0  0  0  0  0  0
  -17.9461    3.9855    0.0000 C   0  0  0  0  0  0  0  0  0  0  0  0
  -19.4133    3.6736    0.0000 C   0  0  0  0  0  0  0  0  0  0  0  0
  -19.8768    2.2471    0.0000 C   0  0  0  0  0  0  0  0  0  0  0  0
  -21.3441    1.9352    0.0000 C   0  0  0  0  0  0  0  0  0  0  0  0
  -22.3478    3.0499    0.0000 C   0  0  0  0  0  0  0  0  0  0  0  0
  -21.8842    4.4765    0.0000 C   0  0  0  0  0  0  0  0  0  0  0  0
  -20.4170    4.7884    0.0000 C   0  0  0  0  0  0  0  0  0  0  0  0
  -17.4826    5.4121    0.0000 C   0  0  0  0  0  0  0  0  0  0  0  0
  -16.0153    5.7240    0.0000 C   0  0  0  0  0  0  0  0  0  0  0  0
  -15.5518    7.1505    0.0000 C   0  0  0  0  0  0  0  0  0  0  0  0
  -16.5555    8.2653    0.0000 C   0  0  0  0  0  0  0  0  0  0  0  0
  -16.0920    9.6918    0.0000 C   0  0  0  0  0  0  0  0  0  0  0  0
  -14.6248   10.0037    0.0000 C   0  0  0  0  0  0  0  0  0  0  0  0
  -13.6211    8.8890    0.0000 C   0  0  0  0  0  0  0  0  0  0  0  0
  -14.0846    7.4624    0.0000 C   0  0  0  0  0  0  0  0  0  0  0  0
  -10.0698    3.0035    0.0000 C   0  0  0  0  0  0  0  0  0  0  0  0
   -8.6026    3.3154    0.0000 C   0  0  0  0  0  0  0  0  0  0  0  0
   -0.7500    1.2990    0.0000 C   0  0  0  0  0  0  0  0  0  0  0  0
    0.7500    1.2990    0.0000 C   0  0  0  0  0  0  0  0  0  0  0  0
  1  2  1  0
  2  3  2  0
  3  4  1  0
  4  5  2  0
  5  6  1  0
  6  7  2  0
  6  8  1  0
  8  9  1  0
  9 10  2  0
 10 11  1  0
 11 12  2  0
 12 13  1  0
 13 14  1  0
 14 15  2  0
 15 16  1  0
 16 17  2  0
 17 18  1  0
 18 19  2  0
 18 20  1  0
 20 21  1  0
 21 22  2  0
 22 23  1  0
 23 24  2  0
 24 25  1  0
 25 26  1  0
 26 27  2  0
 27 28  1  0
 28 29  2  0
 29 30  1  0
 30 31  2  0
 17 32  1  0
 32 33  2  0
 33 34  1  0
 34 35  2  0
 35 36  1  0
 36 37  2  0
 37 38  1  0
 38 39  2  0
 38 40  1  0
 40 41  1  0
 41 42  2  0
 42 43  1  0
 43 44  2  0
 44 45  1  0
 45 46  2  0
 46 47  1  0
 47 48  2  0
 48 49  1  0
 49 50  2  0
 44 51  1  0
 51 52  2  0
 52 53  1  0
 53 54  2  0
 54 55  1  0
 55 56  2  0
 56 57  1  0
 57 58  2  0
 37 59  1  0
 59 60  2  0
  5 61  1  0
 61 62  2  0
 62  2  1  0
 13  9  1  0
 33 14  1  0
 60 34  1  0
 25 21  1  0
 31 26  1  0
 52 41  1  0
 58 53  1  0
 50 45  1  0
M  END
>  <Title>  (866) 
idABHHgen7

$$$$

     RDKit          2D

 33 37  0  0  0  0  0  0  0  0999 V2000
    3.2286   -0.0000    0.0000 C   0  0  0  0  0  0  0  0  0  0  0  0
    1.7286    0.0000    0.0000 C   0  0  0  0  0  0  0  0  0  0  0  0
    1.0777    1.3515    0.0000 C   0  0  0  0  0  0  0  0  0  0  0  0
   -0.3846    1.6852    0.0000 C   0  0  0  0  0  0  0  0  0  0  0  0
   -1.5574    0.7500    0.0000 C   0  0  0  0  0  0  0  0  0  0  0  0
   -2.7301    1.6852    0.0000 C   0  0  0  0  0  0  0  0  0  0  0  0
   -4.1925    1.3515    0.0000 C   0  0  0  0  0  0  0  0  0  0  0  0
   -4.8434   -0.0000    0.0000 C   0  0  0  0  0  0  0  0  0  0  0  0
   -4.1925   -1.3515    0.0000 C   0  0  0  0  0  0  0  0  0  0  0  0
   -5.1278   -2.5242    0.0000 C   0  0  0  0  0  0  0  0  0  0  0  0
   -4.5798   -3.9205    0.0000 O   0  0  0  0  0  0  0  0  0  0  0  0
   -6.6110   -2.3006    0.0000 N   0  0  0  0  0  0  0  0  0  0  0  0
   -7.5462   -3.4734    0.0000 C   0  0  0  0  0  0  0  0  0  0  0  0
   -7.1472   -4.9193    0.0000 N   0  0  0  0  0  0  0  0  0  0  0  0
   -8.3991   -5.7457    0.0000 N   0  0  0  0  0  0  0  0  0  0  0  0
   -9.5718   -4.8104    0.0000 N   0  0  0  0  0  0  0  0  0  0  0  0
   -9.0447   -3.4061    0.0000 N   0  0  0  0  0  0  0  0  0  0  0  0
   -9.8711   -2.1542    0.0000 C   0  0  0  0  0  0  0  0  0  0  0  0
   -9.2001   -0.8127    0.0000 C   0  0  0  0  0  0  0  0  0  0  0  0
  -10.0265    0.4392    0.0000 C   0  0  0  0  0  0  0  0  0  0  0  0
  -11.5238    0.3495    0.0000 C   0  0  0  0  0  0  0  0  0  0  0  0
  -12.3501    1.6014    0.0000 C   0  0  0  0  0  0  0  0  0  0  0  0
  -11.6791    2.9429    0.0000 C   0  0  0  0  0  0  0  0  0  0  0  0
  -12.5055    4.1948    0.0000 C   0  0  0  0  0  0  0  0  0  0  0  0
  -14.0028    4.1051    0.0000 C   0  0  0  0  0  0  0  0  0  0  0  0
  -14.6738    2.7635    0.0000 C   0  0  0  0  0  0  0  0  0  0  0  0
  -13.8474    1.5116    0.0000 C   0  0  0  0  0  0  0  0  0  0  0  0
  -12.1947   -0.9921    0.0000 C   0  0  0  0  0  0  0  0  0  0  0  0
  -11.3684   -2.2439    0.0000 C   0  0  0  0  0  0  0  0  0  0  0  0
   -2.7301   -1.6852    0.0000 C   0  0  0  0  0  0  0  0  0  0  0  0
   -1.5574   -0.7500    0.0000 C   0  0  0  0  0  0  0  0  0  0  0  0
   -0.3846   -1.6852    0.0000 C   0  0  0  0  0  0  0  0  0  0  0  0
    1.0777   -1.3515    0.0000 C   0  0  0  0  0  0  0  0  0  0  0  0
  1  2  1  0
  2  3  2  0
  3  4  1  0
  4  5  2  0
  5  6  1  0
  6  7  2  0
  7  8  1  0
  8  9  2  0
  9 10  1  0
 10 11  2  0
 10 12  1  0
 12 13  1  0
 13 14  2  0
 14 15  1  0
 15 16  2  0
 16 17  1  0
 17 18  1  0
 18 19  2  0
 19 20  1  0
 20 21  2  0
 21 22  1  0
 22 23  2  0
 23 24  1  0
 24 25  2  0
 25 26  1  0
 26 27  2  0
 21 28  1  0
 28 29  2  0
  9 30  1  0
 30 31  2  0
 31 32  1  0
 32 33  2  0
 33  2  1  0
 31  5  1  0
 17 13  1  0
 29 18  1  0
 27 22  1  0
M  END
>  <Title>  (867) 
idABHIgen7

$$$$

     RDKit          2D

 31 33  0  0  0  0  0  0  0  0999 V2000
    3.0000    0.0000    0.0000 C   0  0  0  0  0  0  0  0  0  0  0  0
    1.5000    0.0000    0.0000 C   0  0  0  0  0  0  0  0  0  0  0  0
    0.7500   -1.2990    0.0000 C   0  0  0  0  0  0  0  0  0  0  0  0
   -0.7500   -1.2990    0.0000 C   0  0  0  0  0  0  0  0  0  0  0  0
   -1.5000   -2.5981    0.0000 C   0  0  0  0  0  0  0  0  0  0  0  0
   -0.7500   -3.8971    0.0000 O   0  0  0  0  0  0  0  0  0  0  0  0
   -3.0000   -2.5981    0.0000 N   0  0  0  0  0  0  0  0  0  0  0  0
   -3.7500   -3.8971    0.0000 C   0  0  0  0  0  0  0  0  0  0  0  0
   -3.1399   -5.2674    0.0000 N   0  0  0  0  0  0  0  0  0  0  0  0
   -4.2546   -6.2711    0.0000 C   0  0  0  0  0  0  0  0  0  0  0  0
   -5.5537   -5.5211    0.0000 N   0  0  0  0  0  0  0  0  0  0  0  0
   -5.2418   -4.0539    0.0000 N   0  0  0  0  0  0  0  0  0  0  0  0
   -6.2455   -2.9392    0.0000 C   0  0  0  0  0  0  0  0  0  0  0  0
   -5.7820   -1.5126    0.0000 C   0  0  0  0  0  0  0  0  0  0  0  0
   -6.7856   -0.3979    0.0000 C   0  0  0  0  0  0  0  0  0  0  0  0
   -8.2529   -0.7098    0.0000 C   0  0  0  0  0  0  0  0  0  0  0  0
   -9.2566    0.4050    0.0000 C   0  0  0  0  0  0  0  0  0  0  0  0
  -10.7238    0.0931    0.0000 O   0  0  0  0  0  0  0  0  0  0  0  0
   -8.7930    1.8315    0.0000 N   0  0  0  0  0  0  0  0  0  0  0  0
   -9.7967    2.9463    0.0000 O   0  0  0  0  0  0  0  0  0  0  0  0
   -8.7164   -2.1363    0.0000 C   0  0  0  0  0  0  0  0  0  0  0  0
   -7.7127   -3.2511    0.0000 C   0  0  0  0  0  0  0  0  0  0  0  0
   -1.5000    0.0000    0.0000 C   0  0  0  0  0  0  0  0  0  0  0  0
   -0.7500    1.2990    0.0000 C   0  0  0  0  0  0  0  0  0  0  0  0
    0.7500    1.2990    0.0000 N   0  0  0  0  0  0  0  0  0  0  0  0
    1.5000    2.5981    0.0000 C   0  0  0  0  0  0  0  0  0  0  0  0
    0.7500    3.8971    0.0000 C   0  0  0  0  0  0  0  0  0  0  0  0
    3.0000    2.5981    0.0000 C   0  0  0  0  0  0  0  0  0  0  0  0
    3.7500    3.8971    0.0000 C   0  0  0  0  0  0  0  0  0  0  0  0
    5.2500    3.8971    0.0000 C   0  0  0  0  0  0  0  0  0  0  0  0
    3.0000    5.1962    0.0000 C   0  0  0  0  0  0  0  0  0  0  0  0
  1  2  1  0
  2  3  2  0
  3  4  1  0
  4  5  1  0
  5  6  2  0
  5  7  1  0
  7  8  1  0
  8  9  2  0
  9 10  1  0
 10 11  2  0
 11 12  1  0
 12 13  1  0
 13 14  2  0
 14 15  1  0
 15 16  2  0
 16 17  1  0
 17 18  2  0
 17 19  1  0
 19 20  1  0
 16 21  1  0
 21 22  1  0
  4 23  1  0
 23 24  1  0
 24 25  1  0
 25 26  1  0
 26 27  1  0
 26 28  1  0
 28 29  1  0
 29 30  1  0
 29 31  1  0
 25  2  1  0
 12  8  1  0
 22 13  1  0
M  END
>  <Title>  (868) 
idABHJgen7

$$$$

     RDKit          2D

 52 60  0  0  0  0  0  0  0  0999 V2000
    3.0000    0.0000    0.0000 C   0  0  0  0  0  0  0  0  0  0  0  0
    1.5000    0.0000    0.0000 C   0  0  0  0  0  0  0  0  0  0  0  0
    0.7500   -1.2990    0.0000 C   0  0  0  0  0  0  0  0  0  0  0  0
   -0.7500   -1.2990    0.0000 C   0  0  0  0  0  0  0  0  0  0  0  0
   -1.5000    0.0000    0.0000 C   0  0  0  0  0  0  0  0  0  0  0  0
   -3.0000    0.0000    0.0000 C   0  0  0  0  0  0  0  0  0  0  0  0
   -3.8817   -1.2135    0.0000 N   0  0  0  0  0  0  0  0  0  0  0  0
   -5.3083   -0.7500    0.0000 N   0  0  0  0  0  0  0  0  0  0  0  0
   -5.3083    0.7500    0.0000 N   0  0  0  0  0  0  0  0  0  0  0  0
   -3.8817    1.2135    0.0000 N   0  0  0  0  0  0  0  0  0  0  0  0
   -3.4182    2.6401    0.0000 C   0  0  0  0  0  0  0  0  0  0  0  0
   -1.9509    2.9520    0.0000 C   0  0  0  0  0  0  0  0  0  0  0  0
   -1.4874    4.3786    0.0000 C   0  0  0  0  0  0  0  0  0  0  0  0
   -2.4911    5.4933    0.0000 C   0  0  0  0  0  0  0  0  0  0  0  0
   -2.0276    6.9199    0.0000 C   0  0  0  0  0  0  0  0  0  0  0  0
   -2.9093    8.1334    0.0000 N   0  0  0  0  0  0  0  0  0  0  0  0
   -2.0276    9.3469    0.0000 N   0  0  0  0  0  0  0  0  0  0  0  0
   -0.6010    8.8834    0.0000 N   0  0  0  0  0  0  0  0  0  0  0  0
   -0.6010    7.3834    0.0000 N   0  0  0  0  0  0  0  0  0  0  0  0
    0.6125    6.5017    0.0000 C   0  0  0  0  0  0  0  0  0  0  0  0
    0.4557    5.0099    0.0000 C   0  0  0  0  0  0  0  0  0  0  0  0
    1.6693    4.1283    0.0000 C   0  0  0  0  0  0  0  0  0  0  0  0
    3.0396    4.7384    0.0000 C   0  0  0  0  0  0  0  0  0  0  0  0
    3.1964    6.2301    0.0000 C   0  0  0  0  0  0  0  0  0  0  0  0
    1.9829    7.1118    0.0000 C   0  0  0  0  0  0  0  0  0  0  0  0
   -3.9583    5.1814    0.0000 C   0  0  0  0  0  0  0  0  0  0  0  0
   -4.4218    3.7548    0.0000 C   0  0  0  0  0  0  0  0  0  0  0  0
   -5.8891    3.4430    0.0000 C   0  0  0  0  0  0  0  0  0  0  0  0
   -6.8928    4.5577    0.0000 C   0  0  0  0  0  0  0  0  0  0  0  0
   -8.3600    4.2458    0.0000 C   0  0  0  0  0  0  0  0  0  0  0  0
   -8.8235    2.8192    0.0000 C   0  0  0  0  0  0  0  0  0  0  0  0
  -10.2907    2.5074    0.0000 C   0  0  0  0  0  0  0  0  0  0  0  0
  -10.9008    1.1370    0.0000 N   0  0  0  0  0  0  0  0  0  0  0  0
  -12.3926    1.2938    0.0000 N   0  0  0  0  0  0  0  0  0  0  0  0
  -12.7045    2.7611    0.0000 N   0  0  0  0  0  0  0  0  0  0  0  0
  -11.4055    3.5111    0.0000 N   0  0  0  0  0  0  0  0  0  0  0  0
  -11.2487    5.0028    0.0000 C   0  0  0  0  0  0  0  0  0  0  0  0
   -9.8783    5.6129    0.0000 C   0  0  0  0  0  0  0  0  0  0  0  0
   -9.7215    7.1047    0.0000 C   0  0  0  0  0  0  0  0  0  0  0  0
  -10.9351    7.9864    0.0000 C   0  0  0  0  0  0  0  0  0  0  0  0
  -12.3054    7.3763    0.0000 C   0  0  0  0  0  0  0  0  0  0  0  0
  -12.4622    5.8845    0.0000 C   0  0  0  0  0  0  0  0  0  0  0  0
  -13.8325    5.2744    0.0000 C   0  0  0  0  0  0  0  0  0  0  0  0
  -15.0460    6.1561    0.0000 C   0  0  0  0  0  0  0  0  0  0  0  0
  -16.4163    5.5460    0.0000 C   0  0  0  0  0  0  0  0  0  0  0  0
  -16.5731    4.0542    0.0000 C   0  0  0  0  0  0  0  0  0  0  0  0
  -15.3596    3.1725    0.0000 C   0  0  0  0  0  0  0  0  0  0  0  0
  -13.9893    3.7826    0.0000 C   0  0  0  0  0  0  0  0  0  0  0  0
   -7.8198    1.7045    0.0000 C   0  0  0  0  0  0  0  0  0  0  0  0
   -6.3526    2.0164    0.0000 C   0  0  0  0  0  0  0  0  0  0  0  0
   -0.7500    1.2990    0.0000 C   0  0  0  0  0  0  0  0  0  0  0  0
    0.7500    1.2990    0.0000 C   0  0  0  0  0  0  0  0  0  0  0  0
  1  2  1  0
  2  3  2  0
  3  4  1  0
  4  5  2  0
  5  6  1  0
  6  7  2  0
  7  8  1  0
  8  9  2  0
  9 10  1  0
 10 11  1  0
 11 12  2  0
 12 13  1  0
 13 14  2  0
 14 15  1  0
 15 16  2  0
 16 17  1  0
 17 18  2  0
 18 19  1  0
 19 20  1  0
 20 21  2  0
 21 22  1  0
 22 23  2  0
 23 24  1  0
 24 25  2  0
 14 26  1  0
 26 27  2  0
 27 28  1  0
 28 29  2  0
 29 30  1  0
 30 31  2  0
 31 32  1  0
 32 33  2  0
 33 34  1  0
 34 35  2  0
 35 36  1  0
 36 37  1  0
 37 38  2  0
 38 39  1  0
 39 40  2  0
 40 41  1  0
 41 42  2  0
 42 43  1  0
 43 44  2  0
 44 45  1  0
 45 46  2  0
 46 47  1  0
 47 48  2  0
 31 49  1  0
 49 50  1  0
  5 51  1  0
 51 52  2  0
 52  2  1  0
 10  6  1  0
 27 11  1  0
 50 28  1  0
 19 15  1  0
 25 20  1  0
 36 32  1  0
 42 37  1  0
 48 43  1  0
M  END
>  <Title>  (869) 
idABHKgen7

$$$$

     RDKit          2D

 40 45  0  0  0  0  0  0  0  0999 V2000
    3.0000    0.0000    0.0000 C   0  0  0  0  0  0  0  0  0  0  0  0
    1.5000    0.0000    0.0000 C   0  0  0  0  0  0  0  0  0  0  0  0
    0.7500   -1.2990    0.0000 C   0  0  0  0  0  0  0  0  0  0  0  0
   -0.7500   -1.2990    0.0000 C   0  0  0  0  0  0  0  0  0  0  0  0
   -1.5000    0.0000    0.0000 C   0  0  0  0  0  0  0  0  0  0  0  0
   -3.0000    0.0000    0.0000 C   0  0  0  0  0  0  0  0  0  0  0  0
   -3.7500   -1.2990    0.0000 O   0  0  0  0  0  0  0  0  0  0  0  0
   -3.7500    1.2990    0.0000 N   0  0  0  0  0  0  0  0  0  0  0  0
   -5.2500    1.2990    0.0000 C   0  0  0  0  0  0  0  0  0  0  0  0
   -6.1317    0.0855    0.0000 N   0  0  0  0  0  0  0  0  0  0  0  0
   -7.5583    0.5490    0.0000 N   0  0  0  0  0  0  0  0  0  0  0  0
   -7.5583    2.0490    0.0000 N   0  0  0  0  0  0  0  0  0  0  0  0
   -6.1317    2.5126    0.0000 N   0  0  0  0  0  0  0  0  0  0  0  0
   -5.6682    3.9391    0.0000 C   0  0  0  0  0  0  0  0  0  0  0  0
   -4.2009    4.2510    0.0000 C   0  0  0  0  0  0  0  0  0  0  0  0
   -3.7374    5.6776    0.0000 C   0  0  0  0  0  0  0  0  0  0  0  0
   -4.7411    6.7923    0.0000 C   0  0  0  0  0  0  0  0  0  0  0  0
   -4.2776    8.2189    0.0000 C   0  0  0  0  0  0  0  0  0  0  0  0
   -5.2813    9.3336    0.0000 O   0  0  0  0  0  0  0  0  0  0  0  0
   -2.8104    8.5308    0.0000 N   0  0  0  0  0  0  0  0  0  0  0  0
   -2.3468    9.9574    0.0000 C   0  0  0  0  0  0  0  0  0  0  0  0
   -3.2285   11.1709    0.0000 N   0  0  0  0  0  0  0  0  0  0  0  0
   -2.3468   12.3844    0.0000 N   0  0  0  0  0  0  0  0  0  0  0  0
   -0.9202   11.9209    0.0000 N   0  0  0  0  0  0  0  0  0  0  0  0
   -0.9202   10.4209    0.0000 N   0  0  0  0  0  0  0  0  0  0  0  0
    0.2933    9.5392    0.0000 C   0  0  0  0  0  0  0  0  0  0  0  0
    0.2933    8.0392    0.0000 N   0  0  0  0  0  0  0  0  0  0  0  0
    1.7199    7.5757    0.0000 N   0  0  0  0  0  0  0  0  0  0  0  0
    2.6015    8.7892    0.0000 N   0  0  0  0  0  0  0  0  0  0  0  0
    1.7199   10.0027    0.0000 N   0  0  0  0  0  0  0  0  0  0  0  0
    2.1834   11.4293    0.0000 C   0  0  0  0  0  0  0  0  0  0  0  0
    3.6506   11.7412    0.0000 C   0  0  0  0  0  0  0  0  0  0  0  0
    4.1141   13.1678    0.0000 C   0  0  0  0  0  0  0  0  0  0  0  0
    3.1104   14.2825    0.0000 C   0  0  0  0  0  0  0  0  0  0  0  0
    1.6432   13.9706    0.0000 C   0  0  0  0  0  0  0  0  0  0  0  0
    1.1797   12.5440    0.0000 C   0  0  0  0  0  0  0  0  0  0  0  0
   -6.2083    6.4805    0.0000 C   0  0  0  0  0  0  0  0  0  0  0  0
   -6.6718    5.0539    0.0000 C   0  0  0  0  0  0  0  0  0  0  0  0
   -0.7500    1.2990    0.0000 C   0  0  0  0  0  0  0  0  0  0  0  0
    0.7500    1.2990    0.0000 C   0  0  0  0  0  0  0  0  0  0  0  0
  1  2  1  0
  2  3  2  0
  3  4  1  0
  4  5  2  0
  5  6  1  0
  6  7  2  0
  6  8  1  0
  8  9  1  0
  9 10  2  0
 10 11  1  0
 11 12  2  0
 12 13  1  0
 13 14  1  0
 14 15  2  0
 15 16  1  0
 16 17  2  0
 17 18  1  0
 18 19  2  0
 18 20  1  0
 20 21  1  0
 21 22  2  0
 22 23  1  0
 23 24  2  0
 24 25  1  0
 25 26  1  0
 26 27  2  0
 27 28  1  0
 28 29  2  0
 29 30  1  0
 30 31  1  0
 31 32  2  0
 32 33  1  0
 33 34  2  0
 34 35  1  0
 35 36  2  0
 17 37  1  0
 37 38  2  0
  5 39  1  0
 39 40  2  0
 40  2  1  0
 13  9  1  0
 38 14  1  0
 25 21  1  0
 30 26  1  0
 36 31  1  0
M  END
>  <Title>  (870) 
idABHLgen7

$$$$

     RDKit          2D

 46 51  0  0  0  0  0  0  0  0999 V2000
    3.0000   -1.5000    0.0000 C   0  0  0  0  0  0  0  0  0  0  0  0
    3.0000    0.0000    0.0000 C   0  0  0  0  0  0  0  0  0  0  0  0
    3.0000    1.5000    0.0000 C   0  0  0  0  0  0  0  0  0  0  0  0
    4.5000    0.0000    0.0000 C   0  0  0  0  0  0  0  0  0  0  0  0
    1.5000    0.0000    0.0000 C   0  0  0  0  0  0  0  0  0  0  0  0
    0.7500   -1.2990    0.0000 C   0  0  0  0  0  0  0  0  0  0  0  0
   -0.7500   -1.2990    0.0000 C   0  0  0  0  0  0  0  0  0  0  0  0
   -1.5000    0.0000    0.0000 C   0  0  0  0  0  0  0  0  0  0  0  0
   -3.0000    0.0000    0.0000 C   0  0  0  0  0  0  0  0  0  0  0  0
   -3.7500   -1.2990    0.0000 O   0  0  0  0  0  0  0  0  0  0  0  0
   -3.7500    1.2990    0.0000 N   0  0  0  0  0  0  0  0  0  0  0  0
   -5.2500    1.2990    0.0000 C   0  0  0  0  0  0  0  0  0  0  0  0
   -6.1317    0.0855    0.0000 N   0  0  0  0  0  0  0  0  0  0  0  0
   -7.5583    0.5490    0.0000 N   0  0  0  0  0  0  0  0  0  0  0  0
   -7.5583    2.0490    0.0000 N   0  0  0  0  0  0  0  0  0  0  0  0
   -6.1317    2.5126    0.0000 N   0  0  0  0  0  0  0  0  0  0  0  0
   -5.6682    3.9391    0.0000 C   0  0  0  0  0  0  0  0  0  0  0  0
   -4.2009    4.2510    0.0000 C   0  0  0  0  0  0  0  0  0  0  0  0
   -3.7374    5.6776    0.0000 C   0  0  0  0  0  0  0  0  0  0  0  0
   -4.7411    6.7923    0.0000 C   0  0  0  0  0  0  0  0  0  0  0  0
   -4.2776    8.2189    0.0000 C   0  0  0  0  0  0  0  0  0  0  0  0
   -5.2813    9.3336    0.0000 O   0  0  0  0  0  0  0  0  0  0  0  0
   -2.8104    8.5308    0.0000 N   0  0  0  0  0  0  0  0  0  0  0  0
   -2.3468    9.9574    0.0000 C   0  0  0  0  0  0  0  0  0  0  0  0
   -0.8796   10.2692    0.0000 C   0  0  0  0  0  0  0  0  0  0  0  0
    0.1241    9.1545    0.0000 C   0  0  0  0  0  0  0  0  0  0  0  0
    1.5913    9.4664    0.0000 C   0  0  0  0  0  0  0  0  0  0  0  0
    2.0548   10.8930    0.0000 C   0  0  0  0  0  0  0  0  0  0  0  0
    1.0511   12.0077    0.0000 C   0  0  0  0  0  0  0  0  0  0  0  0
   -0.4161   11.6958    0.0000 C   0  0  0  0  0  0  0  0  0  0  0  0
   -6.2083    6.4805    0.0000 C   0  0  0  0  0  0  0  0  0  0  0  0
   -7.2120    7.5952    0.0000 O   0  0  0  0  0  0  0  0  0  0  0  0
   -6.6718    5.0539    0.0000 N   0  0  0  0  0  0  0  0  0  0  0  0
   -0.7500    1.2990    0.0000 C   0  0  0  0  0  0  0  0  0  0  0  0
    0.7500    1.2990    0.0000 C   0  0  0  0  0  0  0  0  0  0  0  0
    1.5000    2.5981    0.0000 N   0  0  0  0  0  0  0  0  0  0  0  0
    0.8899    3.9684    0.0000 N   0  0  0  0  0  0  0  0  0  0  0  0
    2.0046    4.9721    0.0000 N   0  0  0  0  0  0  0  0  0  0  0  0
    3.3037    4.2221    0.0000 N   0  0  0  0  0  0  0  0  0  0  0  0
    2.9918    2.7549    0.0000 C   0  0  0  0  0  0  0  0  0  0  0  0
    3.9955    1.6402    0.0000 C   0  0  0  0  0  0  0  0  0  0  0  0
    5.4627    1.9520    0.0000 C   0  0  0  0  0  0  0  0  0  0  0  0
    6.0728    3.3223    0.0000 C   0  0  0  0  0  0  0  0  0  0  0  0
    7.5646    3.1655    0.0000 C   0  0  0  0  0  0  0  0  0  0  0  0
    7.8765    1.6983    0.0000 C   0  0  0  0  0  0  0  0  0  0  0  0
    6.5774    0.9483    0.0000 C   0  0  0  0  0  0  0  0  0  0  0  0
  1  2  1  0
  2  3  1  0
  2  4  1  0
  2  5  1  0
  5  6  2  0
  6  7  1  0
  7  8  2  0
  8  9  1  0
  9 10  2  0
  9 11  1  0
 11 12  1  0
 12 13  2  0
 13 14  1  0
 14 15  2  0
 15 16  1  0
 16 17  1  0
 17 18  2  0
 18 19  1  0
 19 20  2  0
 20 21  1  0
 21 22  2  0
 21 23  1  0
 23 24  1  0
 24 25  1  0
 25 26  2  0
 26 27  1  0
 27 28  2  0
 28 29  1  0
 29 30  2  0
 20 31  1  0
 31 32  2  0
 31 33  1  0
  8 34  1  0
 34 35  2  0
 35 36  1  0
 36 37  1  0
 37 38  2  0
 38 39  1  0
 39 40  2  0
 40 41  1  0
 41 42  2  3
 42 43  1  0
 43 44  2  0
 44 45  1  0
 45 46  2  0
 35  5  1  0
 40 36  1  0
 46 42  1  0
 16 12  1  0
 33 17  1  0
 30 25  1  0
M  END
>  <Title>  (871) 
idABHMgen7

$$$$

     RDKit          2D

 18 19  0  0  0  0  0  0  0  0999 V2000
    3.7500   -1.2990    0.0000 C   0  0  0  0  0  0  0  0  0  0  0  0
    3.0000    0.0000    0.0000 O   0  0  0  0  0  0  0  0  0  0  0  0
    1.5000    0.0000    0.0000 C   0  0  0  0  0  0  0  0  0  0  0  0
    0.7500   -1.2990    0.0000 C   0  0  0  0  0  0  0  0  0  0  0  0
   -0.7500   -1.2990    0.0000 C   0  0  0  0  0  0  0  0  0  0  0  0
   -1.5000    0.0000    0.0000 C   0  0  0  0  0  0  0  0  0  0  0  0
   -3.0000    0.0000    0.0000 C   0  0  0  0  0  0  0  0  0  0  0  0
   -3.7500    1.2990    0.0000 N   0  0  0  0  0  0  0  0  0  0  0  0
   -5.2500    1.2990    0.0000 C   0  0  0  0  0  0  0  0  0  0  0  0
   -6.0000    0.0000    0.0000 O   0  0  0  0  0  0  0  0  0  0  0  0
   -6.0000    2.5981    0.0000 C   0  0  0  0  0  0  0  0  0  0  0  0
   -5.2500    3.8971    0.0000 C   0  0  0  0  0  0  0  0  0  0  0  0
   -6.0000    5.1962    0.0000 C   0  0  0  0  0  0  0  0  0  0  0  0
   -7.5000    5.1962    0.0000 C   0  0  0  0  0  0  0  0  0  0  0  0
   -8.2500    3.8971    0.0000 C   0  0  0  0  0  0  0  0  0  0  0  0
   -7.5000    2.5981    0.0000 C   0  0  0  0  0  0  0  0  0  0  0  0
   -0.7500    1.2990    0.0000 C   0  0  0  0  0  0  0  0  0  0  0  0
    0.7500    1.2990    0.0000 C   0  0  0  0  0  0  0  0  0  0  0  0
  1  2  1  0
  2  3  1  0
  3  4  2  0
  4  5  1  0
  5  6  2  0
  6  7  1  0
  7  8  1  0
  8  9  1  0
  9 10  2  0
  9 11  1  0
 11 12  1  0
 12 13  1  0
 13 14  1  0
 14 15  1  0
 15 16  1  0
  6 17  1  0
 17 18  2  0
 18  3  1  0
 16 11  1  0
M  END
>  <Title>  (872) 
idABHNgen7

$$$$

     RDKit          2D

 31 34  0  0  0  0  0  0  0  0999 V2000
    5.2500   -1.2990    0.0000 C   0  0  0  0  0  0  0  0  0  0  0  0
    3.7500   -1.2990    0.0000 C   0  0  0  0  0  0  0  0  0  0  0  0
    3.0000   -2.5981    0.0000 O   0  0  0  0  0  0  0  0  0  0  0  0
    3.0000    0.0000    0.0000 O   0  0  0  0  0  0  0  0  0  0  0  0
    1.5000    0.0000    0.0000 C   0  0  0  0  0  0  0  0  0  0  0  0
    0.7500   -1.2990    0.0000 C   0  0  0  0  0  0  0  0  0  0  0  0
   -0.7500   -1.2990    0.0000 C   0  0  0  0  0  0  0  0  0  0  0  0
   -1.5000    0.0000    0.0000 C   0  0  0  0  0  0  0  0  0  0  0  0
   -3.0000    0.0000    0.0000 N   0  0  0  0  0  0  0  0  0  0  0  0
   -3.7500    1.2990    0.0000 C   0  0  0  0  0  0  0  0  0  0  0  0
   -3.0000    2.5981    0.0000 O   0  0  0  0  0  0  0  0  0  0  0  0
   -5.2500    1.2990    0.0000 C   0  0  0  0  0  0  0  0  0  0  0  0
   -6.1317    0.0855    0.0000 C   0  0  0  0  0  0  0  0  0  0  0  0
   -7.5583    0.5490    0.0000 C   0  0  0  0  0  0  0  0  0  0  0  0
   -7.5583    2.0490    0.0000 C   0  0  0  0  0  0  0  0  0  0  0  0
   -8.7718    2.9307    0.0000 C   0  0  0  0  0  0  0  0  0  0  0  0
  -10.1984    2.4672    0.0000 N   0  0  0  0  0  0  0  0  0  0  0  0
  -11.0801    3.6807    0.0000 N   0  0  0  0  0  0  0  0  0  0  0  0
  -10.1984    4.8942    0.0000 N   0  0  0  0  0  0  0  0  0  0  0  0
   -8.7718    4.4307    0.0000 N   0  0  0  0  0  0  0  0  0  0  0  0
   -7.5583    5.3124    0.0000 C   0  0  0  0  0  0  0  0  0  0  0  0
   -6.1879    4.7023    0.0000 C   0  0  0  0  0  0  0  0  0  0  0  0
   -4.9744    5.5840    0.0000 C   0  0  0  0  0  0  0  0  0  0  0  0
   -5.1312    7.0757    0.0000 C   0  0  0  0  0  0  0  0  0  0  0  0
   -6.5015    7.6859    0.0000 C   0  0  0  0  0  0  0  0  0  0  0  0
   -7.7151    6.8042    0.0000 C   0  0  0  0  0  0  0  0  0  0  0  0
   -6.1317    2.5126    0.0000 C   0  0  0  0  0  0  0  0  0  0  0  0
   -5.6682    3.9391    0.0000 O   0  0  0  0  0  0  0  0  0  0  0  0
   -0.7500    1.2990    0.0000 C   0  0  0  0  0  0  0  0  0  0  0  0
   -1.5000    2.5981    0.0000 O   0  0  0  0  0  0  0  0  0  0  0  0
    0.7500    1.2990    0.0000 N   0  0  0  0  0  0  0  0  0  0  0  0
  1  2  1  0
  2  3  2  0
  2  4  1  0
  4  5  1  0
  5  6  2  0
  6  7  1  0
  7  8  2  0
  8  9  1  0
  9 10  1  0
 10 11  2  0
 10 12  1  0
 12 13  2  0
 13 14  1  0
 14 15  2  0
 15 16  1  0
 16 17  2  0
 17 18  1  0
 18 19  2  0
 19 20  1  0
 20 21  1  0
 21 22  2  0
 22 23  1  0
 23 24  2  0
 24 25  1  0
 25 26  2  0
 15 27  1  0
 27 28  2  0
  8 29  1  0
 29 30  2  0
 29 31  1  0
 31  5  1  0
 27 12  1  0
 20 16  1  0
 26 21  1  0
M  END
>  <Title>  (873) 
idABHOgen7

$$$$

     RDKit          2D

 29 32  0  0  0  0  0  0  0  0999 V2000
    3.7500   -1.2990    0.0000 C   0  0  0  0  0  0  0  0  0  0  0  0
    3.0000    0.0000    0.0000 O   0  0  0  0  0  0  0  0  0  0  0  0
    1.5000    0.0000    0.0000 C   0  0  0  0  0  0  0  0  0  0  0  0
    0.7500   -1.2990    0.0000 C   0  0  0  0  0  0  0  0  0  0  0  0
   -0.7500   -1.2990    0.0000 C   0  0  0  0  0  0  0  0  0  0  0  0
   -1.5000    0.0000    0.0000 C   0  0  0  0  0  0  0  0  0  0  0  0
   -3.0000    0.0000    0.0000 C   0  0  0  0  0  0  0  0  0  0  0  0
   -3.8817   -1.2135    0.0000 N   0  0  0  0  0  0  0  0  0  0  0  0
   -5.3083   -0.7500    0.0000 N   0  0  0  0  0  0  0  0  0  0  0  0
   -5.3083    0.7500    0.0000 N   0  0  0  0  0  0  0  0  0  0  0  0
   -3.8817    1.2135    0.0000 N   0  0  0  0  0  0  0  0  0  0  0  0
   -3.4182    2.6401    0.0000 C   0  0  0  0  0  0  0  0  0  0  0  0
   -4.2998    3.8536    0.0000 C   0  0  0  0  0  0  0  0  0  0  0  0
   -3.4182    5.0672    0.0000 C   0  0  0  0  0  0  0  0  0  0  0  0
   -1.9916    4.6036    0.0000 C   0  0  0  0  0  0  0  0  0  0  0  0
   -0.7780    5.4853    0.0000 C   0  0  0  0  0  0  0  0  0  0  0  0
    0.5923    4.8752    0.0000 C   0  0  0  0  0  0  0  0  0  0  0  0
    1.8058    5.7569    0.0000 C   0  0  0  0  0  0  0  0  0  0  0  0
    1.6490    7.2487    0.0000 C   0  0  0  0  0  0  0  0  0  0  0  0
    2.8625    8.1303    0.0000 C   0  0  0  0  0  0  0  0  0  0  0  0
    2.7057    9.6221    0.0000 O   0  0  0  0  0  0  0  0  0  0  0  0
    4.2329    7.5202    0.0000 N   0  0  0  0  0  0  0  0  0  0  0  0
    5.4464    8.4019    0.0000 O   0  0  0  0  0  0  0  0  0  0  0  0
    0.2787    7.8588    0.0000 C   0  0  0  0  0  0  0  0  0  0  0  0
   -0.9348    6.9771    0.0000 C   0  0  0  0  0  0  0  0  0  0  0  0
   -1.9916    3.1036    0.0000 C   0  0  0  0  0  0  0  0  0  0  0  0
   -0.7780    2.2220    0.0000 O   0  0  0  0  0  0  0  0  0  0  0  0
   -0.7500    1.2990    0.0000 C   0  0  0  0  0  0  0  0  0  0  0  0
    0.7500    1.2990    0.0000 C   0  0  0  0  0  0  0  0  0  0  0  0
  1  2  1  0
  2  3  1  0
  3  4  2  0
  4  5  1  0
  5  6  2  0
  6  7  1  0
  7  8  2  0
  8  9  1  0
  9 10  2  0
 10 11  1  0
 11 12  1  0
 12 13  2  0
 13 14  1  0
 14 15  2  0
 15 16  1  0
 16 17  2  0
 17 18  1  0
 18 19  2  0
 19 20  1  0
 20 21  2  0
 20 22  1  0
 22 23  1  0
 19 24  1  0
 24 25  1  0
 15 26  1  0
 26 27  2  0
  6 28  1  0
 28 29  2  0
 29  3  1  0
 11  7  1  0
 26 12  1  0
 25 16  1  0
M  END
>  <Title>  (874) 
idABHPgen7

$$$$

     RDKit          2D

 12 13  0  0  0  0  0  0  0  0999 V2000
   -0.0000   -6.0850    0.0000 O   0  0  0  0  0  0  0  0  0  0  0  0
   -0.0000   -4.5850    0.0000 C   0  0  0  0  0  0  0  0  0  0  0  0
    1.3515   -3.9342    0.0000 C   0  0  0  0  0  0  0  0  0  0  0  0
    1.6852   -2.4718    0.0000 C   0  0  0  0  0  0  0  0  0  0  0  0
    0.7500   -1.2990    0.0000 C   0  0  0  0  0  0  0  0  0  0  0  0
    1.5000    0.0000    0.0000 C   0  0  0  0  0  0  0  0  0  0  0  0
    0.7500    1.2990    0.0000 C   0  0  0  0  0  0  0  0  0  0  0  0
   -0.7500    1.2990    0.0000 C   0  0  0  0  0  0  0  0  0  0  0  0
   -1.5000    0.0000    0.0000 C   0  0  0  0  0  0  0  0  0  0  0  0
   -0.7500   -1.2990    0.0000 C   0  0  0  0  0  0  0  0  0  0  0  0
   -1.6852   -2.4718    0.0000 C   0  0  0  0  0  0  0  0  0  0  0  0
   -1.3515   -3.9342    0.0000 C   0  0  0  0  0  0  0  0  0  0  0  0
  1  2  1  0
  2  3  2  0
  3  4  1  0
  4  5  2  0
  5  6  1  0
  6  7  2  0
  7  8  1  0
  8  9  2  0
  9 10  1  0
 10 11  2  0
 11 12  1  0
 12  2  1  0
 10  5  1  0
M  END
>  <Title>  (875) 
idABHQgen7

$$$$

     RDKit          2D

 25 27  0  0  0  0  0  0  0  0999 V2000
    5.2500   -1.2990    0.0000 C   0  0  0  0  0  0  0  0  0  0  0  0
    3.7500   -1.2990    0.0000 C   0  0  0  0  0  0  0  0  0  0  0  0
    3.0000   -2.5981    0.0000 O   0  0  0  0  0  0  0  0  0  0  0  0
    3.0000    0.0000    0.0000 N   0  0  0  0  0  0  0  0  0  0  0  0
    1.5000    0.0000    0.0000 C   0  0  0  0  0  0  0  0  0  0  0  0
    0.7500   -1.2990    0.0000 C   0  0  0  0  0  0  0  0  0  0  0  0
   -0.7500   -1.2990    0.0000 C   0  0  0  0  0  0  0  0  0  0  0  0
   -1.5000    0.0000    0.0000 C   0  0  0  0  0  0  0  0  0  0  0  0
   -3.0000    0.0000    0.0000 C   0  0  0  0  0  0  0  0  0  0  0  0
   -3.7500   -1.2990    0.0000 O   0  0  0  0  0  0  0  0  0  0  0  0
   -3.7500    1.2990    0.0000 N   0  0  0  0  0  0  0  0  0  0  0  0
   -5.2500    1.2990    0.0000 C   0  0  0  0  0  0  0  0  0  0  0  0
   -6.1317    0.0855    0.0000 N   0  0  0  0  0  0  0  0  0  0  0  0
   -7.5583    0.5490    0.0000 N   0  0  0  0  0  0  0  0  0  0  0  0
   -7.5583    2.0490    0.0000 N   0  0  0  0  0  0  0  0  0  0  0  0
   -6.1317    2.5126    0.0000 N   0  0  0  0  0  0  0  0  0  0  0  0
   -5.6682    3.9391    0.0000 C   0  0  0  0  0  0  0  0  0  0  0  0
   -4.2009    4.2510    0.0000 C   0  0  0  0  0  0  0  0  0  0  0  0
   -3.7374    5.6776    0.0000 C   0  0  0  0  0  0  0  0  0  0  0  0
   -4.7411    6.7923    0.0000 C   0  0  0  0  0  0  0  0  0  0  0  0
   -6.2083    6.4805    0.0000 C   0  0  0  0  0  0  0  0  0  0  0  0
   -6.6718    5.0539    0.0000 C   0  0  0  0  0  0  0  0  0  0  0  0
   -0.7500    1.2990    0.0000 C   0  0  0  0  0  0  0  0  0  0  0  0
   -1.5000    2.5981    0.0000 O   0  0  0  0  0  0  0  0  0  0  0  0
    0.7500    1.2990    0.0000 N   0  0  0  0  0  0  0  0  0  0  0  0
  1  2  1  0
  2  3  2  0
  2  4  1  0
  4  5  1  0
  5  6  2  0
  6  7  1  0
  7  8  2  0
  8  9  1  0
  9 10  2  0
  9 11  1  0
 11 12  1  0
 12 13  2  0
 13 14  1  0
 14 15  2  0
 15 16  1  0
 16 17  1  0
 17 18  2  0
 18 19  1  0
 19 20  2  0
 20 21  1  0
 21 22  2  0
  8 23  1  0
 23 24  2  0
 23 25  1  0
 25  5  1  0
 16 12  1  0
 22 17  1  0
M  END
>  <Title>  (876) 
idABHRgen7

$$$$

     RDKit          2D

 32 36  0  0  0  0  0  0  0  0999 V2000
    3.0000    0.0000    0.0000 C   0  0  0  0  0  0  0  0  0  0  0  0
    1.5000    0.0000    0.0000 C   0  0  0  0  0  0  0  0  0  0  0  0
    0.7500   -1.2990    0.0000 C   0  0  0  0  0  0  0  0  0  0  0  0
   -0.7500   -1.2990    0.0000 C   0  0  0  0  0  0  0  0  0  0  0  0
   -1.5000    0.0000    0.0000 C   0  0  0  0  0  0  0  0  0  0  0  0
   -3.0000    0.0000    0.0000 C   0  0  0  0  0  0  0  0  0  0  0  0
   -3.7500   -1.2990    0.0000 O   0  0  0  0  0  0  0  0  0  0  0  0
   -3.7500    1.2990    0.0000 N   0  0  0  0  0  0  0  0  0  0  0  0
   -5.2500    1.2990    0.0000 C   0  0  0  0  0  0  0  0  0  0  0  0
   -6.1317    0.0855    0.0000 N   0  0  0  0  0  0  0  0  0  0  0  0
   -7.5583    0.5490    0.0000 N   0  0  0  0  0  0  0  0  0  0  0  0
   -7.5583    2.0490    0.0000 N   0  0  0  0  0  0  0  0  0  0  0  0
   -6.1317    2.5126    0.0000 N   0  0  0  0  0  0  0  0  0  0  0  0
   -5.6682    3.9391    0.0000 C   0  0  0  0  0  0  0  0  0  0  0  0
   -4.2009    4.2510    0.0000 C   0  0  0  0  0  0  0  0  0  0  0  0
   -3.7374    5.6776    0.0000 C   0  0  0  0  0  0  0  0  0  0  0  0
   -4.7411    6.7923    0.0000 C   0  0  0  0  0  0  0  0  0  0  0  0
   -4.2776    8.2189    0.0000 C   0  0  0  0  0  0  0  0  0  0  0  0
   -5.1593    9.4324    0.0000 N   0  0  0  0  0  0  0  0  0  0  0  0
   -4.2776   10.6460    0.0000 N   0  0  0  0  0  0  0  0  0  0  0  0
   -2.8510   10.1824    0.0000 N   0  0  0  0  0  0  0  0  0  0  0  0
   -2.8510    8.6824    0.0000 N   0  0  0  0  0  0  0  0  0  0  0  0
   -1.6375    7.8008    0.0000 C   0  0  0  0  0  0  0  0  0  0  0  0
   -1.7943    6.3090    0.0000 C   0  0  0  0  0  0  0  0  0  0  0  0
   -0.5807    5.4273    0.0000 C   0  0  0  0  0  0  0  0  0  0  0  0
    0.7896    6.0374    0.0000 C   0  0  0  0  0  0  0  0  0  0  0  0
    0.9464    7.5292    0.0000 C   0  0  0  0  0  0  0  0  0  0  0  0
   -0.2671    8.4109    0.0000 C   0  0  0  0  0  0  0  0  0  0  0  0
   -6.2083    6.4805    0.0000 C   0  0  0  0  0  0  0  0  0  0  0  0
   -6.6718    5.0539    0.0000 C   0  0  0  0  0  0  0  0  0  0  0  0
   -0.7500    1.2990    0.0000 C   0  0  0  0  0  0  0  0  0  0  0  0
    0.7500    1.2990    0.0000 C   0  0  0  0  0  0  0  0  0  0  0  0
  1  2  1  0
  2  3  2  0
  3  4  1  0
  4  5  2  0
  5  6  1  0
  6  7  2  0
  6  8  1  0
  8  9  1  0
  9 10  2  0
 10 11  1  0
 11 12  2  0
 12 13  1  0
 13 14  1  0
 14 15  2  0
 15 16  1  0
 16 17  2  0
 17 18  1  0
 18 19  2  0
 19 20  1  0
 20 21  2  0
 21 22  1  0
 22 23  1  0
 23 24  2  0
 24 25  1  0
 25 26  2  0
 26 27  1  0
 27 28  2  0
 17 29  1  0
 29 30  2  0
  5 31  1  0
 31 32  2  0
 32  2  1  0
 13  9  1  0
 30 14  1  0
 22 18  1  0
 28 23  1  0
M  END
>  <Title>  (877) 
idABHSgen7

$$$$

     RDKit          2D

 29 33  0  0  0  0  0  0  0  0999 V2000
   -1.2266    3.6245    0.0000 C   0  0  0  0  0  0  0  0  0  0  0  0
    0.1437    3.0144    0.0000 C   0  0  0  0  0  0  0  0  0  0  0  0
    0.4556    1.5472    0.0000 C   0  0  0  0  0  0  0  0  0  0  0  0
    1.9474    1.3904    0.0000 C   0  0  0  0  0  0  0  0  0  0  0  0
    2.5575    2.7607    0.0000 C   0  0  0  0  0  0  0  0  0  0  0  0
    4.0247    3.0725    0.0000 C   0  0  0  0  0  0  0  0  0  0  0  0
    4.6348    4.4429    0.0000 N   0  0  0  0  0  0  0  0  0  0  0  0
    6.1266    4.2861    0.0000 N   0  0  0  0  0  0  0  0  0  0  0  0
    6.4385    2.8189    0.0000 N   0  0  0  0  0  0  0  0  0  0  0  0
    5.1394    2.0689    0.0000 N   0  0  0  0  0  0  0  0  0  0  0  0
    4.9826    0.5771    0.0000 C   0  0  0  0  0  0  0  0  0  0  0  0
    6.0974   -0.4266    0.0000 C   0  0  0  0  0  0  0  0  0  0  0  0
    5.4873   -1.7969    0.0000 C   0  0  0  0  0  0  0  0  0  0  0  0
    3.9955   -1.6402    0.0000 C   0  0  0  0  0  0  0  0  0  0  0  0
    2.9918   -2.7549    0.0000 C   0  0  0  0  0  0  0  0  0  0  0  0
    1.5000   -2.5981    0.0000 N   0  0  0  0  0  0  0  0  0  0  0  0
    0.8899   -3.9684    0.0000 N   0  0  0  0  0  0  0  0  0  0  0  0
    2.0046   -4.9721    0.0000 N   0  0  0  0  0  0  0  0  0  0  0  0
    3.3037   -4.2221    0.0000 N   0  0  0  0  0  0  0  0  0  0  0  0
    4.6740   -4.8322    0.0000 C   0  0  0  0  0  0  0  0  0  0  0  0
    5.8875   -3.9505    0.0000 C   0  0  0  0  0  0  0  0  0  0  0  0
    7.2578   -4.5606    0.0000 C   0  0  0  0  0  0  0  0  0  0  0  0
    7.4146   -6.0524    0.0000 C   0  0  0  0  0  0  0  0  0  0  0  0
    6.2011   -6.9341    0.0000 C   0  0  0  0  0  0  0  0  0  0  0  0
    4.8308   -6.3240    0.0000 C   0  0  0  0  0  0  0  0  0  0  0  0
    3.6172   -7.2057    0.0000 F   0  0  0  0  0  0  0  0  0  0  0  0
    3.6836   -0.1729    0.0000 C   0  0  0  0  0  0  0  0  0  0  0  0
    2.3133    0.4372    0.0000 O   0  0  0  0  0  0  0  0  0  0  0  0
    1.4428    3.7644    0.0000 N   0  0  0  0  0  0  0  0  0  0  0  0
  1  2  1  0
  2  3  2  0
  3  4  1  0
  4  5  2  0
  5  6  1  0
  6  7  2  0
  7  8  1  0
  8  9  2  0
  9 10  1  0
 10 11  1  0
 11 12  2  0
 12 13  1  0
 13 14  2  0
 14 15  1  0
 15 16  2  0
 16 17  1  0
 17 18  2  0
 18 19  1  0
 19 20  1  0
 20 21  2  0
 21 22  1  0
 22 23  2  0
 23 24  1  0
 24 25  2  0
 25 26  1  0
 14 27  1  0
 27 28  2  0
  5 29  1  0
 29  2  1  0
 10  6  1  0
 27 11  1  0
 19 15  1  0
 25 20  1  0
M  END
>  <Title>  (878) 
idABHTgen7

$$$$

     RDKit          2D

 52 60  0  0  0  0  0  0  0  0999 V2000
    3.0000    0.0000    0.0000 C   0  0  0  0  0  0  0  0  0  0  0  0
    1.5000    0.0000    0.0000 C   0  0  0  0  0  0  0  0  0  0  0  0
    0.7500   -1.2990    0.0000 C   0  0  0  0  0  0  0  0  0  0  0  0
   -0.7500   -1.2990    0.0000 C   0  0  0  0  0  0  0  0  0  0  0  0
   -1.5000    0.0000    0.0000 C   0  0  0  0  0  0  0  0  0  0  0  0
   -3.0000    0.0000    0.0000 C   0  0  0  0  0  0  0  0  0  0  0  0
   -3.8817   -1.2135    0.0000 N   0  0  0  0  0  0  0  0  0  0  0  0
   -5.3083   -0.7500    0.0000 N   0  0  0  0  0  0  0  0  0  0  0  0
   -5.3083    0.7500    0.0000 N   0  0  0  0  0  0  0  0  0  0  0  0
   -3.8817    1.2135    0.0000 N   0  0  0  0  0  0  0  0  0  0  0  0
   -3.4182    2.6401    0.0000 C   0  0  0  0  0  0  0  0  0  0  0  0
   -1.9509    2.9520    0.0000 C   0  0  0  0  0  0  0  0  0  0  0  0
   -1.4874    4.3786    0.0000 C   0  0  0  0  0  0  0  0  0  0  0  0
   -2.4911    5.4933    0.0000 C   0  0  0  0  0  0  0  0  0  0  0  0
   -2.0276    6.9199    0.0000 C   0  0  0  0  0  0  0  0  0  0  0  0
   -2.9093    8.1334    0.0000 N   0  0  0  0  0  0  0  0  0  0  0  0
   -2.0276    9.3469    0.0000 N   0  0  0  0  0  0  0  0  0  0  0  0
   -0.6010    8.8834    0.0000 N   0  0  0  0  0  0  0  0  0  0  0  0
   -0.6010    7.3834    0.0000 N   0  0  0  0  0  0  0  0  0  0  0  0
    0.6125    6.5017    0.0000 C   0  0  0  0  0  0  0  0  0  0  0  0
    0.4557    5.0099    0.0000 C   0  0  0  0  0  0  0  0  0  0  0  0
    1.6693    4.1283    0.0000 C   0  0  0  0  0  0  0  0  0  0  0  0
    3.0396    4.7384    0.0000 C   0  0  0  0  0  0  0  0  0  0  0  0
    3.1964    6.2301    0.0000 C   0  0  0  0  0  0  0  0  0  0  0  0
    1.9829    7.1118    0.0000 C   0  0  0  0  0  0  0  0  0  0  0  0
   -3.9583    5.1814    0.0000 C   0  0  0  0  0  0  0  0  0  0  0  0
   -4.4218    3.7548    0.0000 C   0  0  0  0  0  0  0  0  0  0  0  0
   -5.8891    3.4430    0.0000 C   0  0  0  0  0  0  0  0  0  0  0  0
   -6.4992    2.0726    0.0000 N   0  0  0  0  0  0  0  0  0  0  0  0
   -7.9910    2.2294    0.0000 N   0  0  0  0  0  0  0  0  0  0  0  0
   -8.3028    3.6967    0.0000 N   0  0  0  0  0  0  0  0  0  0  0  0
   -7.0038    4.4467    0.0000 N   0  0  0  0  0  0  0  0  0  0  0  0
   -6.8470    5.9384    0.0000 C   0  0  0  0  0  0  0  0  0  0  0  0
   -5.4767    6.5485    0.0000 C   0  0  0  0  0  0  0  0  0  0  0  0
   -5.3199    8.0403    0.0000 C   0  0  0  0  0  0  0  0  0  0  0  0
   -6.5334    8.9220    0.0000 C   0  0  0  0  0  0  0  0  0  0  0  0
   -6.3766   10.4138    0.0000 C   0  0  0  0  0  0  0  0  0  0  0  0
   -5.0063   11.0239    0.0000 C   0  0  0  0  0  0  0  0  0  0  0  0
   -4.8495   12.5157    0.0000 C   0  0  0  0  0  0  0  0  0  0  0  0
   -6.0630   13.3974    0.0000 C   0  0  0  0  0  0  0  0  0  0  0  0
   -7.4333   12.7872    0.0000 C   0  0  0  0  0  0  0  0  0  0  0  0
   -7.5901   11.2955    0.0000 C   0  0  0  0  0  0  0  0  0  0  0  0
   -7.9037    8.3119    0.0000 C   0  0  0  0  0  0  0  0  0  0  0  0
   -8.0605    6.8201    0.0000 C   0  0  0  0  0  0  0  0  0  0  0  0
   -9.4308    6.2100    0.0000 C   0  0  0  0  0  0  0  0  0  0  0  0
  -10.6444    7.0917    0.0000 C   0  0  0  0  0  0  0  0  0  0  0  0
  -12.0147    6.4816    0.0000 C   0  0  0  0  0  0  0  0  0  0  0  0
  -12.1715    4.9898    0.0000 C   0  0  0  0  0  0  0  0  0  0  0  0
  -10.9579    4.1081    0.0000 C   0  0  0  0  0  0  0  0  0  0  0  0
   -9.5876    4.7182    0.0000 C   0  0  0  0  0  0  0  0  0  0  0  0
   -0.7500    1.2990    0.0000 C   0  0  0  0  0  0  0  0  0  0  0  0
    0.7500    1.2990    0.0000 C   0  0  0  0  0  0  0  0  0  0  0  0
  1  2  1  0
  2  3  2  0
  3  4  1  0
  4  5  2  0
  5  6  1  0
  6  7  2  0
  7  8  1  0
  8  9  2  0
  9 10  1  0
 10 11  1  0
 11 12  2  0
 12 13  1  0
 13 14  2  0
 14 15  1  0
 15 16  2  0
 16 17  1  0
 17 18  2  0
 18 19  1  0
 19 20  1  0
 20 21  2  0
 21 22  1  0
 22 23  2  0
 23 24  1  0
 24 25  2  0
 14 26  1  0
 26 27  2  0
 27 28  1  0
 28 29  2  0
 29 30  1  0
 30 31  2  0
 31 32  1  0
 32 33  1  0
 33 34  2  0
 34 35  1  0
 35 36  2  0
 36 37  1  0
 37 38  2  0
 38 39  1  0
 39 40  2  0
 40 41  1  0
 41 42  2  0
 36 43  1  0
 43 44  2  0
 44 45  1  0
 45 46  2  0
 46 47  1  0
 47 48  2  0
 48 49  1  0
 49 50  2  0
  5 51  1  0
 51 52  2  0
 52  2  1  0
 10  6  1  0
 27 11  1  0
 32 28  1  0
 44 33  1  0
 50 45  1  0
 19 15  1  0
 25 20  1  0
 42 37  1  0
M  END
>  <Title>  (879) 
idABHUgen7

$$$$

     RDKit          2D

 49 55  0  0  0  0  0  0  0  0999 V2000
    3.0000    0.0000    0.0000 C   0  0  0  0  0  0  0  0  0  0  0  0
    1.5000    0.0000    0.0000 C   0  0  0  0  0  0  0  0  0  0  0  0
    0.7500   -1.2990    0.0000 C   0  0  0  0  0  0  0  0  0  0  0  0
   -0.7500   -1.2990    0.0000 C   0  0  0  0  0  0  0  0  0  0  0  0
   -1.5000    0.0000    0.0000 C   0  0  0  0  0  0  0  0  0  0  0  0
   -3.0000    0.0000    0.0000 N   0  0  0  0  0  0  0  0  0  0  0  0
   -3.7500    1.2990    0.0000 C   0  0  0  0  0  0  0  0  0  0  0  0
   -3.0000    2.5981    0.0000 O   0  0  0  0  0  0  0  0  0  0  0  0
   -5.2500    1.2990    0.0000 C   0  0  0  0  0  0  0  0  0  0  0  0
   -6.0000    2.5981    0.0000 C   0  0  0  0  0  0  0  0  0  0  0  0
   -6.0000    0.0000    0.0000 C   0  0  0  0  0  0  0  0  0  0  0  0
   -5.2500   -1.2990    0.0000 C   0  0  0  0  0  0  0  0  0  0  0  0
   -3.7500   -1.2990    0.0000 C   0  0  0  0  0  0  0  0  0  0  0  0
   -3.0000   -2.5981    0.0000 C   0  0  0  0  0  0  0  0  0  0  0  0
   -3.7500   -3.8971    0.0000 C   0  0  0  0  0  0  0  0  0  0  0  0
   -3.0000   -5.1962    0.0000 C   0  0  0  0  0  0  0  0  0  0  0  0
   -1.5000   -5.1962    0.0000 C   0  0  0  0  0  0  0  0  0  0  0  0
   -0.7500   -6.4952    0.0000 C   0  0  0  0  0  0  0  0  0  0  0  0
    0.7500   -6.4952    0.0000 O   0  0  0  0  0  0  0  0  0  0  0  0
   -1.5000   -7.7942    0.0000 N   0  0  0  0  0  0  0  0  0  0  0  0
   -0.7500   -9.0933    0.0000 C   0  0  0  0  0  0  0  0  0  0  0  0
    0.7500   -9.0933    0.0000 C   0  0  0  0  0  0  0  0  0  0  0  0
    1.5000  -10.3923    0.0000 C   0  0  0  0  0  0  0  0  0  0  0  0
    0.7500  -11.6913    0.0000 C   0  0  0  0  0  0  0  0  0  0  0  0
    1.5000  -12.9904    0.0000 C   0  0  0  0  0  0  0  0  0  0  0  0
    3.0000  -12.9904    0.0000 C   0  0  0  0  0  0  0  0  0  0  0  0
    3.7500  -14.2894    0.0000 C   0  0  0  0  0  0  0  0  0  0  0  0
    3.0000  -15.5885    0.0000 C   0  0  0  0  0  0  0  0  0  0  0  0
    1.5000  -15.5885    0.0000 C   0  0  0  0  0  0  0  0  0  0  0  0
    0.7500  -14.2894    0.0000 C   0  0  0  0  0  0  0  0  0  0  0  0
   -0.7500  -11.6913    0.0000 C   0  0  0  0  0  0  0  0  0  0  0  0
   -1.5000  -10.3923    0.0000 C   0  0  0  0  0  0  0  0  0  0  0  0
   -3.0000  -10.3923    0.0000 N   0  0  0  0  0  0  0  0  0  0  0  0
   -3.7500   -9.0933    0.0000 N   0  0  0  0  0  0  0  0  0  0  0  0
   -5.2500   -9.0933    0.0000 N   0  0  0  0  0  0  0  0  0  0  0  0
   -6.0000  -10.3923    0.0000 N   0  0  0  0  0  0  0  0  0  0  0  0
   -5.2500  -11.6913    0.0000 N   0  0  0  0  0  0  0  0  0  0  0  0
   -3.7500  -11.6913    0.0000 N   0  0  0  0  0  0  0  0  0  0  0  0
   -3.0000  -12.9904    0.0000 C   0  0  0  0  0  0  0  0  0  0  0  0
   -3.7500  -14.2894    0.0000 C   0  0  0  0  0  0  0  0  0  0  0  0
   -3.0000  -15.5885    0.0000 C   0  0  0  0  0  0  0  0  0  0  0  0
   -1.5000  -15.5885    0.0000 C   0  0  0  0  0  0  0  0  0  0  0  0
   -0.7500  -14.2894    0.0000 C   0  0  0  0  0  0  0  0  0  0  0  0
   -1.5000  -12.9904    0.0000 C   0  0  0  0  0  0  0  0  0  0  0  0
   -0.7500   -3.8971    0.0000 C   0  0  0  0  0  0  0  0  0  0  0  0
   -1.5000   -2.5981    0.0000 C   0  0  0  0  0  0  0  0  0  0  0  0
   -0.7500    1.2990    0.0000 C   0  0  0  0  0  0  0  0  0  0  0  0
   -1.5000    2.5981    0.0000 O   0  0  0  0  0  0  0  0  0  0  0  0
    0.7500    1.2990    0.0000 N   0  0  0  0  0  0  0  0  0  0  0  0
  1  2  1  0
  2  3  2  0
  3  4  1  0
  4  5  2  0
  5  6  1  0
  6  7  1  0
  7  8  2  0
  7  9  1  0
  9 10  1  0
  9 11  2  0
 11 12  1  0
 12 13  2  0
 13 14  1  0
 14 15  2  0
 15 16  1  0
 16 17  2  0
 17 18  1  0
 18 19  2  0
 18 20  1  0
 20 21  1  0
 21 22  2  0
 22 23  1  0
 23 24  2  0
 24 25  1  0
 25 26  2  0
 26 27  1  0
 27 28  2  0
 28 29  1  0
 29 30  2  0
 24 31  1  0
 31 32  2  0
 32 33  1  0
 33 34  1  0
 34 35  2  0
 35 36  1  0
 36 37  2  0
 37 38  1  0
 38 39  1  0
 39 40  2  0
 40 41  1  0
 41 42  2  0
 42 43  1  0
 43 44  2  0
 17 45  1  0
 45 46  2  0
  5 47  1  0
 47 48  2  0
 47 49  1  0
 49  2  1  0
 13  6  1  0
 46 14  1  0
 32 21  1  0
 38 33  1  0
 44 39  1  0
 30 25  1  0
M  END
>  <Title>  (880) 
idABHVgen7

$$$$

     RDKit          2D

 13 13  0  0  0  0  0  0  0  0999 V2000
    4.3978    0.0000    0.0000 C   0  0  0  0  0  0  0  0  0  0  0  0
    2.8978    0.0000    0.0000 C   0  0  0  0  0  0  0  0  0  0  0  0
    2.5095   -1.4489    0.0000 C   0  0  0  0  0  0  0  0  0  0  0  0
    1.4489   -2.5095    0.0000 C   0  0  0  0  0  0  0  0  0  0  0  0
   -0.0000   -2.8978    0.0000 C   0  0  0  0  0  0  0  0  0  0  0  0
   -1.4489   -2.5095    0.0000 C   0  0  0  0  0  0  0  0  0  0  0  0
   -2.5095   -1.4489    0.0000 C   0  0  0  0  0  0  0  0  0  0  0  0
   -2.8978    0.0000    0.0000 C   0  0  0  0  0  0  0  0  0  0  0  0
   -2.5095    1.4489    0.0000 C   0  0  0  0  0  0  0  0  0  0  0  0
   -1.4489    2.5095    0.0000 C   0  0  0  0  0  0  0  0  0  0  0  0
    0.0000    2.8978    0.0000 C   0  0  0  0  0  0  0  0  0  0  0  0
    1.4489    2.5095    0.0000 C   0  0  0  0  0  0  0  0  0  0  0  0
    2.5095    1.4489    0.0000 C   0  0  0  0  0  0  0  0  0  0  0  0
  1  2  1  0
  2  3  1  0
  3  4  1  0
  4  5  1  0
  5  6  1  0
  6  7  1  0
  7  8  1  0
  8  9  1  0
  9 10  1  0
 10 11  1  0
 11 12  1  0
 12 13  1  0
 13  2  1  0
M  END
>  <Title>  (881) 
idABHWgen7

$$$$

     RDKit          2D

 11 11  0  0  0  0  0  0  0  0999 V2000
    4.4429   -1.2990    0.0000 C   0  0  0  0  0  0  0  0  0  0  0  0
    3.6929    0.0000    0.0000 C   0  0  0  0  0  0  0  0  0  0  0  0
    2.1929    0.0000    0.0000 C   0  0  0  0  0  0  0  0  0  0  0  0
    1.6798    1.4095    0.0000 C   0  0  0  0  0  0  0  0  0  0  0  0
    0.3808    2.1595    0.0000 C   0  0  0  0  0  0  0  0  0  0  0  0
   -1.0964    1.8991    0.0000 C   0  0  0  0  0  0  0  0  0  0  0  0
   -2.0606    0.7500    0.0000 C   0  0  0  0  0  0  0  0  0  0  0  0
   -2.0606   -0.7500    0.0000 C   0  0  0  0  0  0  0  0  0  0  0  0
   -1.0964   -1.8991    0.0000 C   0  0  0  0  0  0  0  0  0  0  0  0
    0.3808   -2.1595    0.0000 C   0  0  0  0  0  0  0  0  0  0  0  0
    1.6798   -1.4095    0.0000 C   0  0  0  0  0  0  0  0  0  0  0  0
  1  2  1  0
  2  3  1  0
  3  4  1  0
  4  5  1  0
  5  6  1  0
  6  7  1  0
  7  8  1  0
  8  9  1  0
  9 10  1  0
 10 11  1  0
 11  3  1  0
M  END
>  <Title>  (882) 
idABHXgen7

$$$$

     RDKit          2D

 26 29  0  0  0  0  0  0  0  0999 V2000
    7.1303    5.4008    0.0000 C   0  0  0  0  0  0  0  0  0  0  0  0
    6.1266    4.2861    0.0000 C   0  0  0  0  0  0  0  0  0  0  0  0
    4.6348    4.4429    0.0000 C   0  0  0  0  0  0  0  0  0  0  0  0
    4.0247    3.0725    0.0000 C   0  0  0  0  0  0  0  0  0  0  0  0
    5.1394    2.0689    0.0000 C   0  0  0  0  0  0  0  0  0  0  0  0
    4.9826    0.5771    0.0000 C   0  0  0  0  0  0  0  0  0  0  0  0
    6.0974   -0.4266    0.0000 C   0  0  0  0  0  0  0  0  0  0  0  0
    5.4873   -1.7969    0.0000 C   0  0  0  0  0  0  0  0  0  0  0  0
    3.9955   -1.6402    0.0000 C   0  0  0  0  0  0  0  0  0  0  0  0
    2.9918   -2.7549    0.0000 N   0  0  0  0  0  0  0  0  0  0  0  0
    3.3037   -4.2221    0.0000 N   0  0  0  0  0  0  0  0  0  0  0  0
    2.0046   -4.9721    0.0000 N   0  0  0  0  0  0  0  0  0  0  0  0
    0.8899   -3.9684    0.0000 N   0  0  0  0  0  0  0  0  0  0  0  0
    1.5000   -2.5981    0.0000 C   0  0  0  0  0  0  0  0  0  0  0  0
    0.7500   -1.2990    0.0000 C   0  0  0  0  0  0  0  0  0  0  0  0
    1.5000    0.0000    0.0000 C   0  0  0  0  0  0  0  0  0  0  0  0
    0.7500    1.2990    0.0000 C   0  0  0  0  0  0  0  0  0  0  0  0
   -0.7500    1.2990    0.0000 C   0  0  0  0  0  0  0  0  0  0  0  0
   -1.5000    2.5981    0.0000 C   0  0  0  0  0  0  0  0  0  0  0  0
   -1.5000    0.0000    0.0000 N   0  0  0  0  0  0  0  0  0  0  0  0
   -0.7500   -1.2990    0.0000 C   0  0  0  0  0  0  0  0  0  0  0  0
   -1.5000   -2.5981    0.0000 O   0  0  0  0  0  0  0  0  0  0  0  0
    3.6836   -0.1729    0.0000 C   0  0  0  0  0  0  0  0  0  0  0  0
    2.3133    0.4372    0.0000 O   0  0  0  0  0  0  0  0  0  0  0  0
    6.4385    2.8189    0.0000 C   0  0  0  0  0  0  0  0  0  0  0  0
    7.8088    2.2087    0.0000 O   0  0  0  0  0  0  0  0  0  0  0  0
  1  2  1  0
  2  3  2  0
  3  4  1  0
  4  5  2  0
  5  6  1  0
  6  7  2  0
  7  8  1  0
  8  9  2  0
  9 10  1  0
 10 11  1  0
 11 12  2  0
 12 13  1  0
 13 14  2  0
 14 15  1  0
 15 16  2  0
 16 17  1  0
 17 18  2  0
 18 19  1  0
 18 20  1  0
 20 21  1  0
 21 22  2  0
  9 23  1  0
 23 24  2  0
  5 25  1  0
 25 26  2  0
 25  2  1  0
 23  6  1  0
 14 10  1  0
 21 15  1  0
M  END
>  <Title>  (883) 
idABHYgen7

$$$$

     RDKit          2D

 31 34  0  0  0  0  0  0  0  0999 V2000
    5.2500   -1.2990    0.0000 C   0  0  0  0  0  0  0  0  0  0  0  0
    3.7500   -1.2990    0.0000 C   0  0  0  0  0  0  0  0  0  0  0  0
    3.0000   -2.5981    0.0000 O   0  0  0  0  0  0  0  0  0  0  0  0
    3.0000    0.0000    0.0000 O   0  0  0  0  0  0  0  0  0  0  0  0
    1.5000    0.0000    0.0000 C   0  0  0  0  0  0  0  0  0  0  0  0
    0.7500   -1.2990    0.0000 C   0  0  0  0  0  0  0  0  0  0  0  0
   -0.7500   -1.2990    0.0000 C   0  0  0  0  0  0  0  0  0  0  0  0
   -1.5000    0.0000    0.0000 C   0  0  0  0  0  0  0  0  0  0  0  0
   -3.0000    0.0000    0.0000 C   0  0  0  0  0  0  0  0  0  0  0  0
   -3.7500   -1.2990    0.0000 O   0  0  0  0  0  0  0  0  0  0  0  0
   -3.7500    1.2990    0.0000 N   0  0  0  0  0  0  0  0  0  0  0  0
   -5.2500    1.2990    0.0000 C   0  0  0  0  0  0  0  0  0  0  0  0
   -6.1317    0.0855    0.0000 N   0  0  0  0  0  0  0  0  0  0  0  0
   -7.5583    0.5490    0.0000 N   0  0  0  0  0  0  0  0  0  0  0  0
   -7.5583    2.0490    0.0000 N   0  0  0  0  0  0  0  0  0  0  0  0
   -6.1317    2.5126    0.0000 N   0  0  0  0  0  0  0  0  0  0  0  0
   -5.6682    3.9391    0.0000 C   0  0  0  0  0  0  0  0  0  0  0  0
   -4.2009    4.2510    0.0000 C   0  0  0  0  0  0  0  0  0  0  0  0
   -3.7374    5.6776    0.0000 C   0  0  0  0  0  0  0  0  0  0  0  0
   -4.7411    6.7923    0.0000 C   0  0  0  0  0  0  0  0  0  0  0  0
   -4.2776    8.2189    0.0000 C   0  0  0  0  0  0  0  0  0  0  0  0
   -2.8104    8.5308    0.0000 C   0  0  0  0  0  0  0  0  0  0  0  0
   -2.3468    9.9574    0.0000 C   0  0  0  0  0  0  0  0  0  0  0  0
   -3.3505   11.0721    0.0000 C   0  0  0  0  0  0  0  0  0  0  0  0
   -4.8177   10.7602    0.0000 C   0  0  0  0  0  0  0  0  0  0  0  0
   -5.2813    9.3336    0.0000 C   0  0  0  0  0  0  0  0  0  0  0  0
   -6.2083    6.4805    0.0000 C   0  0  0  0  0  0  0  0  0  0  0  0
   -6.6718    5.0539    0.0000 C   0  0  0  0  0  0  0  0  0  0  0  0
   -0.7500    1.2990    0.0000 C   0  0  0  0  0  0  0  0  0  0  0  0
   -1.5000    2.5981    0.0000 O   0  0  0  0  0  0  0  0  0  0  0  0
    0.7500    1.2990    0.0000 N   0  0  0  0  0  0  0  0  0  0  0  0
  1  2  1  0
  2  3  2  0
  2  4  1  0
  4  5  1  0
  5  6  2  0
  6  7  1  0
  7  8  2  0
  8  9  1  0
  9 10  2  0
  9 11  1  0
 11 12  1  0
 12 13  2  0
 13 14  1  0
 14 15  2  0
 15 16  1  0
 16 17  1  0
 17 18  2  0
 18 19  1  0
 19 20  2  0
 20 21  1  0
 21 22  2  0
 22 23  1  0
 23 24  2  0
 24 25  1  0
 25 26  2  0
 20 27  1  0
 27 28  1  0
  8 29  1  0
 29 30  2  0
 29 31  1  0
 31  5  1  0
 16 12  1  0
 28 17  1  0
 26 21  1  0
M  END
>  <Title>  (884) 
idABHZgen7

$$$$

     RDKit          2D

 32 35  0  0  0  0  0  0  0  0999 V2000
    3.7500   -1.2990    0.0000 C   0  0  0  0  0  0  0  0  0  0  0  0
    3.0000    0.0000    0.0000 O   0  0  0  0  0  0  0  0  0  0  0  0
    1.5000    0.0000    0.0000 C   0  0  0  0  0  0  0  0  0  0  0  0
    0.7500   -1.2990    0.0000 C   0  0  0  0  0  0  0  0  0  0  0  0
   -0.7500   -1.2990    0.0000 C   0  0  0  0  0  0  0  0  0  0  0  0
   -1.5000    0.0000    0.0000 C   0  0  0  0  0  0  0  0  0  0  0  0
   -3.0000    0.0000    0.0000 C   0  0  0  0  0  0  0  0  0  0  0  0
   -3.7500   -1.2990    0.0000 O   0  0  0  0  0  0  0  0  0  0  0  0
   -3.7500    1.2990    0.0000 N   0  0  0  0  0  0  0  0  0  0  0  0
   -5.2500    1.2990    0.0000 C   0  0  0  0  0  0  0  0  0  0  0  0
   -6.1317    0.0855    0.0000 N   0  0  0  0  0  0  0  0  0  0  0  0
   -7.5583    0.5490    0.0000 N   0  0  0  0  0  0  0  0  0  0  0  0
   -7.5583    2.0490    0.0000 N   0  0  0  0  0  0  0  0  0  0  0  0
   -6.1317    2.5126    0.0000 N   0  0  0  0  0  0  0  0  0  0  0  0
   -5.6682    3.9391    0.0000 C   0  0  0  0  0  0  0  0  0  0  0  0
   -4.2416    4.4027    0.0000 N   0  0  0  0  0  0  0  0  0  0  0  0
   -4.2416    5.9027    0.0000 N   0  0  0  0  0  0  0  0  0  0  0  0
   -5.6682    6.3662    0.0000 N   0  0  0  0  0  0  0  0  0  0  0  0
   -6.5498    5.1527    0.0000 N   0  0  0  0  0  0  0  0  0  0  0  0
   -8.0498    5.1527    0.0000 C   0  0  0  0  0  0  0  0  0  0  0  0
   -8.7998    3.8536    0.0000 C   0  0  0  0  0  0  0  0  0  0  0  0
  -10.2998    3.8536    0.0000 C   0  0  0  0  0  0  0  0  0  0  0  0
  -11.0498    5.1527    0.0000 C   0  0  0  0  0  0  0  0  0  0  0  0
  -12.5498    5.1527    0.0000 C   0  0  0  0  0  0  0  0  0  0  0  0
  -13.2998    6.4517    0.0000 O   0  0  0  0  0  0  0  0  0  0  0  0
  -13.2998    3.8536    0.0000 N   0  0  0  0  0  0  0  0  0  0  0  0
  -14.7998    3.8536    0.0000 O   0  0  0  0  0  0  0  0  0  0  0  0
  -10.2998    6.4517    0.0000 C   0  0  0  0  0  0  0  0  0  0  0  0
   -8.7998    6.4517    0.0000 C   0  0  0  0  0  0  0  0  0  0  0  0
   -0.7500    1.2990    0.0000 C   0  0  0  0  0  0  0  0  0  0  0  0
   -1.5000    2.5981    0.0000 O   0  0  0  0  0  0  0  0  0  0  0  0
    0.7500    1.2990    0.0000 N   0  0  0  0  0  0  0  0  0  0  0  0
  1  2  1  0
  2  3  1  0
  3  4  2  0
  4  5  1  0
  5  6  2  0
  6  7  1  0
  7  8  2  0
  7  9  1  0
  9 10  1  0
 10 11  2  0
 11 12  1  0
 12 13  2  0
 13 14  1  0
 14 15  1  0
 15 16  2  0
 16 17  1  0
 17 18  2  0
 18 19  1  0
 19 20  1  0
 20 21  2  0
 21 22  1  0
 22 23  2  0
 23 24  1  0
 24 25  2  0
 24 26  1  0
 26 27  1  0
 23 28  1  0
 28 29  1  0
  6 30  1  0
 30 31  2  0
 30 32  1  0
 32  3  1  0
 14 10  1  0
 19 15  1  0
 29 20  1  0
M  END
>  <Title>  (885) 
idABIAgen7

$$$$

     RDKit          2D

 14 14  0  0  0  0  0  0  0  0999 V2000
    3.2286   -5.1962    0.0000 C   0  0  0  0  0  0  0  0  0  0  0  0
    3.9786   -3.8971    0.0000 C   0  0  0  0  0  0  0  0  0  0  0  0
    5.4786   -3.8971    0.0000 C   0  0  0  0  0  0  0  0  0  0  0  0
    3.2286   -2.5981    0.0000 C   0  0  0  0  0  0  0  0  0  0  0  0
    3.9786   -1.2990    0.0000 C   0  0  0  0  0  0  0  0  0  0  0  0
    5.4786   -1.2990    0.0000 C   0  0  0  0  0  0  0  0  0  0  0  0
    3.2286   -0.0000    0.0000 C   0  0  0  0  0  0  0  0  0  0  0  0
    1.7286    0.0000    0.0000 C   0  0  0  0  0  0  0  0  0  0  0  0
    1.0777    1.3515    0.0000 C   0  0  0  0  0  0  0  0  0  0  0  0
   -0.3846    1.6852    0.0000 C   0  0  0  0  0  0  0  0  0  0  0  0
   -1.5574    0.7500    0.0000 C   0  0  0  0  0  0  0  0  0  0  0  0
   -1.5574   -0.7500    0.0000 C   0  0  0  0  0  0  0  0  0  0  0  0
   -0.3846   -1.6852    0.0000 C   0  0  0  0  0  0  0  0  0  0  0  0
    1.0777   -1.3515    0.0000 C   0  0  0  0  0  0  0  0  0  0  0  0
  1  2  1  0
  2  3  1  0
  2  4  1  0
  4  5  1  0
  5  6  1  0
  5  7  1  0
  7  8  1  0
  8  9  1  0
  9 10  2  0
 10 11  1  0
 11 12  2  0
 12 13  1  0
 13 14  2  0
 14  8  1  0
M  END
>  <Title>  (886) 
idABIBgen7

$$$$

     RDKit          2D

 25 28  0  0  0  0  0  0  0  0999 V2000
    3.0000    0.0000    0.0000 C   0  0  0  0  0  0  0  0  0  0  0  0
    1.5000    0.0000    0.0000 C   0  0  0  0  0  0  0  0  0  0  0  0
    0.7500   -1.2990    0.0000 C   0  0  0  0  0  0  0  0  0  0  0  0
   -0.7500   -1.2990    0.0000 C   0  0  0  0  0  0  0  0  0  0  0  0
   -1.5000    0.0000    0.0000 C   0  0  0  0  0  0  0  0  0  0  0  0
   -3.0000    0.0000    0.0000 N   0  0  0  0  0  0  0  0  0  0  0  0
   -3.7500    1.2990    0.0000 N   0  0  0  0  0  0  0  0  0  0  0  0
   -5.2500    1.2990    0.0000 N   0  0  0  0  0  0  0  0  0  0  0  0
   -6.0000    0.0000    0.0000 N   0  0  0  0  0  0  0  0  0  0  0  0
   -5.2500   -1.2990    0.0000 N   0  0  0  0  0  0  0  0  0  0  0  0
   -3.7500   -1.2990    0.0000 N   0  0  0  0  0  0  0  0  0  0  0  0
   -3.0000   -2.5981    0.0000 C   0  0  0  0  0  0  0  0  0  0  0  0
   -3.7500   -3.8971    0.0000 C   0  0  0  0  0  0  0  0  0  0  0  0
   -3.0000   -5.1962    0.0000 C   0  0  0  0  0  0  0  0  0  0  0  0
   -1.5000   -5.1962    0.0000 C   0  0  0  0  0  0  0  0  0  0  0  0
   -0.7500   -6.4952    0.0000 C   0  0  0  0  0  0  0  0  0  0  0  0
   -1.5000   -7.7942    0.0000 C   0  0  0  0  0  0  0  0  0  0  0  0
   -0.7500   -9.0933    0.0000 C   0  0  0  0  0  0  0  0  0  0  0  0
    0.7500   -9.0933    0.0000 C   0  0  0  0  0  0  0  0  0  0  0  0
    1.5000   -7.7942    0.0000 C   0  0  0  0  0  0  0  0  0  0  0  0
    0.7500   -6.4952    0.0000 C   0  0  0  0  0  0  0  0  0  0  0  0
   -0.7500   -3.8971    0.0000 C   0  0  0  0  0  0  0  0  0  0  0  0
   -1.5000   -2.5981    0.0000 C   0  0  0  0  0  0  0  0  0  0  0  0
   -0.7500    1.2990    0.0000 C   0  0  0  0  0  0  0  0  0  0  0  0
    0.7500    1.2990    0.0000 C   0  0  0  0  0  0  0  0  0  0  0  0
  1  2  1  0
  2  3  2  0
  3  4  1  0
  4  5  2  0
  5  6  1  0
  6  7  1  0
  7  8  2  0
  8  9  1  0
  9 10  2  0
 10 11  1  0
 11 12  1  0
 12 13  2  0
 13 14  1  0
 14 15  2  0
 15 16  1  0
 16 17  2  0
 17 18  1  0
 18 19  2  0
 19 20  1  0
 20 21  2  0
 15 22  1  0
 22 23  2  0
  5 24  1  0
 24 25  1  0
 25  2  1  0
 11  6  1  0
 23 12  1  0
 21 16  1  0
M  END
>  <Title>  (887) 
idABICgen7

$$$$

     RDKit          2D

 42 48  0  0  0  0  0  0  0  0999 V2000
   -8.2500   -6.4952    0.0000 C   0  0  0  0  0  0  0  0  0  0  0  0
   -7.5000   -5.1962    0.0000 C   0  0  0  0  0  0  0  0  0  0  0  0
   -6.0000   -5.1962    0.0000 C   0  0  0  0  0  0  0  0  0  0  0  0
   -5.2500   -3.8971    0.0000 C   0  0  0  0  0  0  0  0  0  0  0  0
   -6.0000   -2.5981    0.0000 C   0  0  0  0  0  0  0  0  0  0  0  0
   -5.2500   -1.2990    0.0000 N   0  0  0  0  0  0  0  0  0  0  0  0
   -6.0000    0.0000    0.0000 N   0  0  0  0  0  0  0  0  0  0  0  0
   -5.2500    1.2990    0.0000 N   0  0  0  0  0  0  0  0  0  0  0  0
   -3.7500    1.2990    0.0000 N   0  0  0  0  0  0  0  0  0  0  0  0
   -3.0000    0.0000    0.0000 N   0  0  0  0  0  0  0  0  0  0  0  0
   -3.7500   -1.2990    0.0000 N   0  0  0  0  0  0  0  0  0  0  0  0
   -3.0000   -2.5981    0.0000 C   0  0  0  0  0  0  0  0  0  0  0  0
   -3.7500   -3.8971    0.0000 C   0  0  0  0  0  0  0  0  0  0  0  0
   -3.0000   -5.1962    0.0000 C   0  0  0  0  0  0  0  0  0  0  0  0
   -1.5000   -5.1962    0.0000 C   0  0  0  0  0  0  0  0  0  0  0  0
   -0.7500   -6.4952    0.0000 C   0  0  0  0  0  0  0  0  0  0  0  0
   -1.5000   -7.7942    0.0000 C   0  0  0  0  0  0  0  0  0  0  0  0
   -0.7500   -9.0933    0.0000 C   0  0  0  0  0  0  0  0  0  0  0  0
    0.7500   -9.0933    0.0000 C   0  0  0  0  0  0  0  0  0  0  0  0
    1.5000   -7.7942    0.0000 C   0  0  0  0  0  0  0  0  0  0  0  0
    0.7500   -6.4952    0.0000 C   0  0  0  0  0  0  0  0  0  0  0  0
   -0.7500   -3.8971    0.0000 C   0  0  0  0  0  0  0  0  0  0  0  0
   -1.5000   -2.5981    0.0000 C   0  0  0  0  0  0  0  0  0  0  0  0
   -0.7500   -1.2990    0.0000 C   0  0  0  0  0  0  0  0  0  0  0  0
    0.7500   -1.2990    0.0000 C   0  0  0  0  0  0  0  0  0  0  0  0
    1.5000   -0.0000    0.0000 C   0  0  0  0  0  0  0  0  0  0  0  0
    0.7500    1.2990    0.0000 C   0  0  0  0  0  0  0  0  0  0  0  0
    1.5000    2.5981    0.0000 C   0  0  0  0  0  0  0  0  0  0  0  0
    0.8899    3.9684    0.0000 N   0  0  0  0  0  0  0  0  0  0  0  0
    2.0046    4.9721    0.0000 N   0  0  0  0  0  0  0  0  0  0  0  0
    3.3037    4.2221    0.0000 N   0  0  0  0  0  0  0  0  0  0  0  0
    2.9918    2.7549    0.0000 N   0  0  0  0  0  0  0  0  0  0  0  0
    3.9955    1.6402    0.0000 C   0  0  0  0  0  0  0  0  0  0  0  0
    3.5320    0.2136    0.0000 C   0  0  0  0  0  0  0  0  0  0  0  0
    4.5356   -0.9012    0.0000 C   0  0  0  0  0  0  0  0  0  0  0  0
    6.0029   -0.5893    0.0000 C   0  0  0  0  0  0  0  0  0  0  0  0
    6.4664    0.8373    0.0000 C   0  0  0  0  0  0  0  0  0  0  0  0
    5.4627    1.9520    0.0000 C   0  0  0  0  0  0  0  0  0  0  0  0
   -0.7500    1.2990    0.0000 C   0  0  0  0  0  0  0  0  0  0  0  0
   -1.5000   -0.0000    0.0000 C   0  0  0  0  0  0  0  0  0  0  0  0
   -7.5000   -2.5981    0.0000 C   0  0  0  0  0  0  0  0  0  0  0  0
   -8.2500   -3.8971    0.0000 C   0  0  0  0  0  0  0  0  0  0  0  0
  1  2  1  0
  2  3  2  0
  3  4  1  0
  4  5  2  0
  5  6  1  0
  6  7  1  0
  7  8  2  0
  8  9  1  0
  9 10  2  0
 10 11  1  0
 11 12  1  0
 12 13  2  0
 13 14  1  0
 14 15  2  0
 15 16  1  0
 16 17  2  0
 17 18  1  0
 18 19  2  0
 19 20  1  0
 20 21  2  0
 15 22  1  0
 22 23  2  0
 23 24  1  0
 24 25  2  0
 25 26  1  0
 26 27  2  0
 27 28  1  0
 28 29  2  0
 29 30  1  0
 30 31  2  0
 31 32  1  0
 32 33  1  0
 33 34  2  0
 34 35  1  0
 35 36  2  0
 36 37  1  0
 37 38  2  0
 27 39  1  0
 39 40  2  0
  5 41  1  0
 41 42  2  0
 42  2  1  0
 11  6  1  0
 23 12  1  0
 40 24  1  0
 21 16  1  0
 32 28  1  0
 38 33  1  0
M  END
>  <Title>  (888) 
idABIDgen7

$$$$

     RDKit          2D

 34 39  0  0  0  0  0  0  0  0999 V2000
    0.8575   -1.8046    0.0000 O   0  0  0  0  0  0  0  0  0  0  0  0
    1.0143   -0.3128    0.0000 C   0  0  0  0  0  0  0  0  0  0  0  0
    2.3133    0.4372    0.0000 C   0  0  0  0  0  0  0  0  0  0  0  0
    3.6836   -0.1729    0.0000 C   0  0  0  0  0  0  0  0  0  0  0  0
    4.9826    0.5771    0.0000 N   0  0  0  0  0  0  0  0  0  0  0  0
    6.0974   -0.4266    0.0000 N   0  0  0  0  0  0  0  0  0  0  0  0
    5.4873   -1.7969    0.0000 N   0  0  0  0  0  0  0  0  0  0  0  0
    3.9955   -1.6402    0.0000 N   0  0  0  0  0  0  0  0  0  0  0  0
    2.9918   -2.7549    0.0000 C   0  0  0  0  0  0  0  0  0  0  0  0
    1.5000   -2.5981    0.0000 N   0  0  0  0  0  0  0  0  0  0  0  0
    0.8899   -3.9684    0.0000 N   0  0  0  0  0  0  0  0  0  0  0  0
    2.0046   -4.9721    0.0000 N   0  0  0  0  0  0  0  0  0  0  0  0
    3.3037   -4.2221    0.0000 N   0  0  0  0  0  0  0  0  0  0  0  0
    4.6740   -4.8322    0.0000 C   0  0  0  0  0  0  0  0  0  0  0  0
    5.8875   -3.9505    0.0000 C   0  0  0  0  0  0  0  0  0  0  0  0
    7.2578   -4.5606    0.0000 C   0  0  0  0  0  0  0  0  0  0  0  0
    7.4146   -6.0524    0.0000 C   0  0  0  0  0  0  0  0  0  0  0  0
    6.2011   -6.9341    0.0000 C   0  0  0  0  0  0  0  0  0  0  0  0
    4.8308   -6.3240    0.0000 C   0  0  0  0  0  0  0  0  0  0  0  0
    2.0014    1.9044    0.0000 C   0  0  0  0  0  0  0  0  0  0  0  0
    0.5096    2.0612    0.0000 C   0  0  0  0  0  0  0  0  0  0  0  0
   -0.1005    0.6909    0.0000 C   0  0  0  0  0  0  0  0  0  0  0  0
   -1.5677    0.3790    0.0000 N   0  0  0  0  0  0  0  0  0  0  0  0
   -2.1778   -0.9913    0.0000 N   0  0  0  0  0  0  0  0  0  0  0  0
   -3.6696   -0.8345    0.0000 N   0  0  0  0  0  0  0  0  0  0  0  0
   -3.9814    0.6327    0.0000 N   0  0  0  0  0  0  0  0  0  0  0  0
   -2.6824    1.3827    0.0000 C   0  0  0  0  0  0  0  0  0  0  0  0
   -2.5256    2.8745    0.0000 C   0  0  0  0  0  0  0  0  0  0  0  0
   -3.6403    3.8782    0.0000 C   0  0  0  0  0  0  0  0  0  0  0  0
   -3.0302    5.2485    0.0000 C   0  0  0  0  0  0  0  0  0  0  0  0
   -1.5384    5.0917    0.0000 C   0  0  0  0  0  0  0  0  0  0  0  0
   -0.5347    6.2064    0.0000 C   0  0  0  0  0  0  0  0  0  0  0  0
    0.9325    5.8946    0.0000 O   0  0  0  0  0  0  0  0  0  0  0  0
   -1.2266    3.6245    0.0000 C   0  0  0  0  0  0  0  0  0  0  0  0
  1  2  2  0
  2  3  1  0
  3  4  1  0
  4  5  2  0
  5  6  1  0
  6  7  2  0
  7  8  1  0
  8  9  1  0
  9 10  2  0
 10 11  1  0
 11 12  2  0
 12 13  1  0
 13 14  1  0
 14 15  2  0
 15 16  1  0
 16 17  2  0
 17 18  1  0
 18 19  2  0
  3 20  2  0
 20 21  1  0
 21 22  2  0
 22 23  1  0
 23 24  1  0
 24 25  2  0
 25 26  1  0
 26 27  2  0
 27 28  1  0
 28 29  2  0
 29 30  1  0
 30 31  2  0
 31 32  1  0
 32 33  1  0
 31 34  1  0
 22  2  1  0
 27 23  1  0
 34 28  1  0
  8  4  1  0
 13  9  1  0
 19 14  1  0
M  END
>  <Title>  (889) 
idABIEgen7

$$$$

     RDKit          2D

 36 40  0  0  0  0  0  0  0  0999 V2000
    5.2500    1.2990    0.0000 C   0  0  0  0  0  0  0  0  0  0  0  0
    3.7500    1.2990    0.0000 C   0  0  0  0  0  0  0  0  0  0  0  0
    3.0000    2.5981    0.0000 O   0  0  0  0  0  0  0  0  0  0  0  0
    3.0000    0.0000    0.0000 O   0  0  0  0  0  0  0  0  0  0  0  0
    1.5000    0.0000    0.0000 C   0  0  0  0  0  0  0  0  0  0  0  0
    0.7500    1.2990    0.0000 C   0  0  0  0  0  0  0  0  0  0  0  0
   -0.7500    1.2990    0.0000 C   0  0  0  0  0  0  0  0  0  0  0  0
   -1.5000    0.0000    0.0000 C   0  0  0  0  0  0  0  0  0  0  0  0
   -3.0000    0.0000    0.0000 C   0  0  0  0  0  0  0  0  0  0  0  0
   -3.7500   -1.2990    0.0000 O   0  0  0  0  0  0  0  0  0  0  0  0
   -3.7500    1.2990    0.0000 N   0  0  0  0  0  0  0  0  0  0  0  0
   -5.2500    1.2990    0.0000 C   0  0  0  0  0  0  0  0  0  0  0  0
   -6.1317    0.0855    0.0000 N   0  0  0  0  0  0  0  0  0  0  0  0
   -7.5583    0.5490    0.0000 N   0  0  0  0  0  0  0  0  0  0  0  0
   -7.5583    2.0490    0.0000 N   0  0  0  0  0  0  0  0  0  0  0  0
   -6.1317    2.5126    0.0000 N   0  0  0  0  0  0  0  0  0  0  0  0
   -5.6682    3.9391    0.0000 C   0  0  0  0  0  0  0  0  0  0  0  0
   -6.5498    5.1527    0.0000 C   0  0  0  0  0  0  0  0  0  0  0  0
   -5.6682    6.3662    0.0000 C   0  0  0  0  0  0  0  0  0  0  0  0
   -4.2416    5.9027    0.0000 C   0  0  0  0  0  0  0  0  0  0  0  0
   -3.0280    6.7844    0.0000 C   0  0  0  0  0  0  0  0  0  0  0  0
   -3.0280    8.2844    0.0000 N   0  0  0  0  0  0  0  0  0  0  0  0
   -1.6015    8.7479    0.0000 N   0  0  0  0  0  0  0  0  0  0  0  0
   -0.7198    7.5344    0.0000 N   0  0  0  0  0  0  0  0  0  0  0  0
   -1.6015    6.3208    0.0000 N   0  0  0  0  0  0  0  0  0  0  0  0
   -1.1379    4.8942    0.0000 C   0  0  0  0  0  0  0  0  0  0  0  0
   -2.1416    3.7795    0.0000 C   0  0  0  0  0  0  0  0  0  0  0  0
   -1.6781    2.3529    0.0000 C   0  0  0  0  0  0  0  0  0  0  0  0
   -0.2109    2.0411    0.0000 C   0  0  0  0  0  0  0  0  0  0  0  0
    0.7928    3.1558    0.0000 C   0  0  0  0  0  0  0  0  0  0  0  0
    0.3293    4.5824    0.0000 C   0  0  0  0  0  0  0  0  0  0  0  0
   -4.2416    4.4027    0.0000 C   0  0  0  0  0  0  0  0  0  0  0  0
   -3.0280    3.5210    0.0000 O   0  0  0  0  0  0  0  0  0  0  0  0
   -0.7500   -1.2990    0.0000 C   0  0  0  0  0  0  0  0  0  0  0  0
   -1.5000   -2.5981    0.0000 O   0  0  0  0  0  0  0  0  0  0  0  0
    0.7500   -1.2990    0.0000 N   0  0  0  0  0  0  0  0  0  0  0  0
  1  2  1  0
  2  3  2  0
  2  4  1  0
  4  5  1  0
  5  6  2  0
  6  7  1  0
  7  8  2  0
  8  9  1  0
  9 10  2  0
  9 11  1  0
 11 12  1  0
 12 13  2  0
 13 14  1  0
 14 15  2  0
 15 16  1  0
 16 17  1  0
 17 18  2  0
 18 19  1  0
 19 20  2  0
 20 21  1  0
 21 22  2  0
 22 23  1  0
 23 24  2  0
 24 25  1  0
 25 26  1  0
 26 27  2  0
 27 28  1  0
 28 29  2  0
 29 30  1  0
 30 31  2  0
 20 32  1  0
 32 33  2  0
  8 34  1  0
 34 35  2  0
 34 36  1  0
 36  5  1  0
 16 12  1  0
 32 17  1  0
 25 21  1  0
 31 26  1  0
M  END
>  <Title>  (890) 
idABIFgen7

$$$$

     RDKit          2D

 35 39  0  0  0  0  0  0  0  0999 V2000
   -6.0000   -5.1962    0.0000 C   0  0  0  0  0  0  0  0  0  0  0  0
   -5.2500   -3.8971    0.0000 C   0  0  0  0  0  0  0  0  0  0  0  0
   -6.0000   -2.5981    0.0000 C   0  0  0  0  0  0  0  0  0  0  0  0
   -5.2500   -1.2990    0.0000 C   0  0  0  0  0  0  0  0  0  0  0  0
   -3.7500   -1.2990    0.0000 C   0  0  0  0  0  0  0  0  0  0  0  0
   -3.0000    0.0000    0.0000 C   0  0  0  0  0  0  0  0  0  0  0  0
   -3.7500    1.2990    0.0000 C   0  0  0  0  0  0  0  0  0  0  0  0
   -5.2418    1.4558    0.0000 N   0  0  0  0  0  0  0  0  0  0  0  0
   -5.5537    2.9231    0.0000 N   0  0  0  0  0  0  0  0  0  0  0  0
   -4.2546    3.6731    0.0000 N   0  0  0  0  0  0  0  0  0  0  0  0
   -3.1399    2.6694    0.0000 N   0  0  0  0  0  0  0  0  0  0  0  0
   -1.6727    2.9812    0.0000 C   0  0  0  0  0  0  0  0  0  0  0  0
   -0.6690    1.8665    0.0000 C   0  0  0  0  0  0  0  0  0  0  0  0
    0.7982    2.1784    0.0000 C   0  0  0  0  0  0  0  0  0  0  0  0
    1.2618    3.6050    0.0000 C   0  0  0  0  0  0  0  0  0  0  0  0
    2.7290    3.9168    0.0000 C   0  0  0  0  0  0  0  0  0  0  0  0
    3.7327    2.8021    0.0000 O   0  0  0  0  0  0  0  0  0  0  0  0
    3.1925    5.3434    0.0000 N   0  0  0  0  0  0  0  0  0  0  0  0
    4.6597    5.6553    0.0000 C   0  0  0  0  0  0  0  0  0  0  0  0
    5.7745    4.6516    0.0000 N   0  0  0  0  0  0  0  0  0  0  0  0
    7.0735    5.4016    0.0000 N   0  0  0  0  0  0  0  0  0  0  0  0
    6.7616    6.8688    0.0000 N   0  0  0  0  0  0  0  0  0  0  0  0
    5.2698    7.0256    0.0000 N   0  0  0  0  0  0  0  0  0  0  0  0
    4.5198    8.3246    0.0000 C   0  0  0  0  0  0  0  0  0  0  0  0
    5.2698    9.6237    0.0000 C   0  0  0  0  0  0  0  0  0  0  0  0
    4.5198   10.9227    0.0000 C   0  0  0  0  0  0  0  0  0  0  0  0
    3.0198   10.9227    0.0000 C   0  0  0  0  0  0  0  0  0  0  0  0
    2.2698    9.6237    0.0000 C   0  0  0  0  0  0  0  0  0  0  0  0
    3.0198    8.3246    0.0000 C   0  0  0  0  0  0  0  0  0  0  0  0
    0.2581    4.7197    0.0000 C   0  0  0  0  0  0  0  0  0  0  0  0
    0.7216    6.1463    0.0000 O   0  0  0  0  0  0  0  0  0  0  0  0
   -1.2091    4.4078    0.0000 N   0  0  0  0  0  0  0  0  0  0  0  0
   -3.0000   -2.5981    0.0000 C   0  0  0  0  0  0  0  0  0  0  0  0
   -1.5000   -2.5981    0.0000 O   0  0  0  0  0  0  0  0  0  0  0  0
   -3.7500   -3.8971    0.0000 N   0  0  0  0  0  0  0  0  0  0  0  0
  1  2  1  0
  2  3  2  0
  3  4  1  0
  4  5  2  0
  5  6  1  0
  6  7  1  0
  7  8  2  0
  8  9  1  0
  9 10  2  0
 10 11  1  0
 11 12  1  0
 12 13  2  0
 13 14  1  0
 14 15  2  0
 15 16  1  0
 16 17  2  0
 16 18  1  0
 18 19  1  0
 19 20  2  0
 20 21  1  0
 21 22  2  0
 22 23  1  0
 23 24  1  0
 24 25  2  0
 25 26  1  0
 26 27  2  0
 27 28  1  0
 28 29  2  0
 15 30  1  0
 30 31  2  0
 30 32  1  0
  5 33  1  0
 33 34  2  0
 33 35  1  0
 35  2  1  0
 11  7  1  0
 32 12  1  0
 23 19  1  0
 29 24  1  0
M  END
>  <Title>  (891) 
idABIGgen7

$$$$

     RDKit          2D

 39 43  0  0  0  0  0  0  0  0999 V2000
    5.2500   -1.2990    0.0000 C   0  0  0  0  0  0  0  0  0  0  0  0
    3.7500   -1.2990    0.0000 C   0  0  0  0  0  0  0  0  0  0  0  0
    3.0000   -2.5981    0.0000 O   0  0  0  0  0  0  0  0  0  0  0  0
    3.0000    0.0000    0.0000 O   0  0  0  0  0  0  0  0  0  0  0  0
    1.5000    0.0000    0.0000 C   0  0  0  0  0  0  0  0  0  0  0  0
    0.7500   -1.2990    0.0000 C   0  0  0  0  0  0  0  0  0  0  0  0
   -0.7500   -1.2990    0.0000 C   0  0  0  0  0  0  0  0  0  0  0  0
   -1.5000    0.0000    0.0000 C   0  0  0  0  0  0  0  0  0  0  0  0
   -3.0000    0.0000    0.0000 C   0  0  0  0  0  0  0  0  0  0  0  0
   -3.7500   -1.2990    0.0000 O   0  0  0  0  0  0  0  0  0  0  0  0
   -3.7500    1.2990    0.0000 N   0  0  0  0  0  0  0  0  0  0  0  0
   -5.2500    1.2990    0.0000 C   0  0  0  0  0  0  0  0  0  0  0  0
   -6.1317    0.0855    0.0000 N   0  0  0  0  0  0  0  0  0  0  0  0
   -7.5583    0.5490    0.0000 N   0  0  0  0  0  0  0  0  0  0  0  0
   -7.5583    2.0490    0.0000 N   0  0  0  0  0  0  0  0  0  0  0  0
   -6.1317    2.5126    0.0000 N   0  0  0  0  0  0  0  0  0  0  0  0
   -5.6682    3.9391    0.0000 C   0  0  0  0  0  0  0  0  0  0  0  0
   -4.2009    4.2510    0.0000 C   0  0  0  0  0  0  0  0  0  0  0  0
   -3.7374    5.6776    0.0000 C   0  0  0  0  0  0  0  0  0  0  0  0
   -4.7411    6.7923    0.0000 C   0  0  0  0  0  0  0  0  0  0  0  0
   -4.2776    8.2189    0.0000 C   0  0  0  0  0  0  0  0  0  0  0  0
   -5.2813    9.3336    0.0000 O   0  0  0  0  0  0  0  0  0  0  0  0
   -2.8104    8.5308    0.0000 N   0  0  0  0  0  0  0  0  0  0  0  0
   -2.3468    9.9574    0.0000 C   0  0  0  0  0  0  0  0  0  0  0  0
   -3.2285   11.1709    0.0000 N   0  0  0  0  0  0  0  0  0  0  0  0
   -2.3468   12.3844    0.0000 N   0  0  0  0  0  0  0  0  0  0  0  0
   -0.9202   11.9209    0.0000 N   0  0  0  0  0  0  0  0  0  0  0  0
   -0.9202   10.4209    0.0000 N   0  0  0  0  0  0  0  0  0  0  0  0
    0.2933    9.5392    0.0000 C   0  0  0  0  0  0  0  0  0  0  0  0
    0.1365    8.0474    0.0000 C   0  0  0  0  0  0  0  0  0  0  0  0
    1.3500    7.1657    0.0000 C   0  0  0  0  0  0  0  0  0  0  0  0
    2.7203    7.7758    0.0000 C   0  0  0  0  0  0  0  0  0  0  0  0
    2.8771    9.2676    0.0000 C   0  0  0  0  0  0  0  0  0  0  0  0
    1.6636   10.1493    0.0000 C   0  0  0  0  0  0  0  0  0  0  0  0
   -6.2083    6.4805    0.0000 C   0  0  0  0  0  0  0  0  0  0  0  0
   -6.6718    5.0539    0.0000 C   0  0  0  0  0  0  0  0  0  0  0  0
   -0.7500    1.2990    0.0000 C   0  0  0  0  0  0  0  0  0  0  0  0
   -1.5000    2.5981    0.0000 O   0  0  0  0  0  0  0  0  0  0  0  0
    0.7500    1.2990    0.0000 N   0  0  0  0  0  0  0  0  0  0  0  0
  1  2  1  0
  2  3  2  0
  2  4  1  0
  4  5  1  0
  5  6  2  0
  6  7  1  0
  7  8  2  0
  8  9  1  0
  9 10  2  0
  9 11  1  0
 11 12  1  0
 12 13  2  0
 13 14  1  0
 14 15  2  0
 15 16  1  0
 16 17  1  0
 17 18  2  0
 18 19  1  0
 19 20  2  0
 20 21  1  0
 21 22  2  0
 21 23  1  0
 23 24  1  0
 24 25  2  0
 25 26  1  0
 26 27  2  0
 27 28  1  0
 28 29  1  0
 29 30  2  0
 30 31  1  0
 31 32  2  0
 32 33  1  0
 33 34  2  0
 20 35  1  0
 35 36  2  0
  8 37  1  0
 37 38  2  0
 37 39  1  0
 39  5  1  0
 16 12  1  0
 36 17  1  0
 28 24  1  0
 34 29  1  0
M  END
>  <Title>  (892) 
idABIHgen7

$$$$

     RDKit          2D

 50 57  0  0  0  0  0  0  0  0999 V2000
    3.0000    0.0000    0.0000 C   0  0  0  0  0  0  0  0  0  0  0  0
    1.5000    0.0000    0.0000 C   0  0  0  0  0  0  0  0  0  0  0  0
    0.7500   -1.2990    0.0000 C   0  0  0  0  0  0  0  0  0  0  0  0
   -0.7500   -1.2990    0.0000 C   0  0  0  0  0  0  0  0  0  0  0  0
   -1.5000    0.0000    0.0000 C   0  0  0  0  0  0  0  0  0  0  0  0
   -3.0000    0.0000    0.0000 C   0  0  0  0  0  0  0  0  0  0  0  0
   -3.7500   -1.2990    0.0000 O   0  0  0  0  0  0  0  0  0  0  0  0
   -3.7500    1.2990    0.0000 N   0  0  0  0  0  0  0  0  0  0  0  0
   -5.2500    1.2990    0.0000 C   0  0  0  0  0  0  0  0  0  0  0  0
   -6.1317    0.0855    0.0000 N   0  0  0  0  0  0  0  0  0  0  0  0
   -7.5583    0.5490    0.0000 N   0  0  0  0  0  0  0  0  0  0  0  0
   -7.5583    2.0490    0.0000 N   0  0  0  0  0  0  0  0  0  0  0  0
   -6.1317    2.5126    0.0000 N   0  0  0  0  0  0  0  0  0  0  0  0
   -5.6682    3.9391    0.0000 C   0  0  0  0  0  0  0  0  0  0  0  0
   -4.2009    4.2510    0.0000 C   0  0  0  0  0  0  0  0  0  0  0  0
   -3.7374    5.6776    0.0000 C   0  0  0  0  0  0  0  0  0  0  0  0
   -4.7411    6.7923    0.0000 C   0  0  0  0  0  0  0  0  0  0  0  0
   -4.2776    8.2189    0.0000 C   0  0  0  0  0  0  0  0  0  0  0  0
   -5.1593    9.4324    0.0000 N   0  0  0  0  0  0  0  0  0  0  0  0
   -4.2776   10.6460    0.0000 N   0  0  0  0  0  0  0  0  0  0  0  0
   -2.8510   10.1824    0.0000 N   0  0  0  0  0  0  0  0  0  0  0  0
   -2.8510    8.6824    0.0000 N   0  0  0  0  0  0  0  0  0  0  0  0
   -1.6375    7.8008    0.0000 C   0  0  0  0  0  0  0  0  0  0  0  0
   -1.6375    6.3008    0.0000 N   0  0  0  0  0  0  0  0  0  0  0  0
   -0.2109    5.8372    0.0000 N   0  0  0  0  0  0  0  0  0  0  0  0
    0.6708    7.0508    0.0000 N   0  0  0  0  0  0  0  0  0  0  0  0
   -0.2109    8.2643    0.0000 N   0  0  0  0  0  0  0  0  0  0  0  0
    0.2526    9.6909    0.0000 C   0  0  0  0  0  0  0  0  0  0  0  0
   -0.7511   10.8056    0.0000 C   0  0  0  0  0  0  0  0  0  0  0  0
   -0.2875   12.2322    0.0000 C   0  0  0  0  0  0  0  0  0  0  0  0
    1.1797   12.5440    0.0000 C   0  0  0  0  0  0  0  0  0  0  0  0
    1.6432   13.9706    0.0000 C   0  0  0  0  0  0  0  0  0  0  0  0
    0.6395   15.0853    0.0000 C   0  0  0  0  0  0  0  0  0  0  0  0
    1.1031   16.5119    0.0000 C   0  0  0  0  0  0  0  0  0  0  0  0
    2.5703   16.8238    0.0000 C   0  0  0  0  0  0  0  0  0  0  0  0
    3.5740   15.7091    0.0000 C   0  0  0  0  0  0  0  0  0  0  0  0
    3.1104   14.2825    0.0000 C   0  0  0  0  0  0  0  0  0  0  0  0
    2.1834   11.4293    0.0000 C   0  0  0  0  0  0  0  0  0  0  0  0
    1.7199   10.0027    0.0000 C   0  0  0  0  0  0  0  0  0  0  0  0
    2.7236    8.8880    0.0000 C   0  0  0  0  0  0  0  0  0  0  0  0
    4.1908    9.1999    0.0000 C   0  0  0  0  0  0  0  0  0  0  0  0
    5.1945    8.0852    0.0000 C   0  0  0  0  0  0  0  0  0  0  0  0
    4.7310    6.6586    0.0000 C   0  0  0  0  0  0  0  0  0  0  0  0
    3.2637    6.3467    0.0000 C   0  0  0  0  0  0  0  0  0  0  0  0
    2.2600    7.4614    0.0000 C   0  0  0  0  0  0  0  0  0  0  0  0
   -6.2083    6.4805    0.0000 C   0  0  0  0  0  0  0  0  0  0  0  0
   -6.6718    5.0539    0.0000 C   0  0  0  0  0  0  0  0  0  0  0  0
   -0.7500    1.2990    0.0000 C   0  0  0  0  0  0  0  0  0  0  0  0
   -1.5000    2.5981    0.0000 O   0  0  0  0  0  0  0  0  0  0  0  0
    0.7500    1.2990    0.0000 N   0  0  0  0  0  0  0  0  0  0  0  0
  1  2  1  0
  2  3  2  0
  3  4  1  0
  4  5  2  0
  5  6  1  0
  6  7  2  0
  6  8  1  0
  8  9  1  0
  9 10  2  0
 10 11  1  0
 11 12  2  0
 12 13  1  0
 13 14  1  0
 14 15  2  0
 15 16  1  0
 16 17  2  0
 17 18  1  0
 18 19  2  0
 19 20  1  0
 20 21  2  0
 21 22  1  0
 22 23  1  0
 23 24  2  0
 24 25  1  0
 25 26  2  0
 26 27  1  0
 27 28  1  0
 28 29  2  0
 29 30  1  0
 30 31  2  0
 31 32  1  0
 32 33  2  0
 33 34  1  0
 34 35  2  0
 35 36  1  0
 36 37  2  0
 31 38  1  0
 38 39  2  0
 39 40  1  0
 40 41  2  0
 41 42  1  0
 42 43  2  0
 43 44  1  0
 44 45  2  0
 17 46  1  0
 46 47  2  0
  5 48  1  0
 48 49  2  0
 48 50  1  0
 50  2  1  0
 13  9  1  0
 47 14  1  0
 22 18  1  0
 27 23  1  0
 39 28  1  0
 45 40  1  0
 37 32  1  0
M  END
>  <Title>  (893) 
idABIIgen7

$$$$

     RDKit          2D

 49 56  0  0  0  0  0  0  0  0999 V2000
    7.5646   -0.1148    0.0000 C   0  0  0  0  0  0  0  0  0  0  0  0
    6.0974   -0.4266    0.0000 C   0  0  0  0  0  0  0  0  0  0  0  0
    4.9826    0.5771    0.0000 C   0  0  0  0  0  0  0  0  0  0  0  0
    3.6836   -0.1729    0.0000 C   0  0  0  0  0  0  0  0  0  0  0  0
    3.9955   -1.6402    0.0000 C   0  0  0  0  0  0  0  0  0  0  0  0
    2.9918   -2.7549    0.0000 C   0  0  0  0  0  0  0  0  0  0  0  0
    3.3037   -4.2221    0.0000 N   0  0  0  0  0  0  0  0  0  0  0  0
    2.0046   -4.9721    0.0000 N   0  0  0  0  0  0  0  0  0  0  0  0
    0.8899   -3.9684    0.0000 N   0  0  0  0  0  0  0  0  0  0  0  0
    1.5000   -2.5981    0.0000 N   0  0  0  0  0  0  0  0  0  0  0  0
    0.7500   -1.2990    0.0000 C   0  0  0  0  0  0  0  0  0  0  0  0
    1.5000    0.0000    0.0000 C   0  0  0  0  0  0  0  0  0  0  0  0
    0.7500    1.2990    0.0000 C   0  0  0  0  0  0  0  0  0  0  0  0
   -0.7500    1.2990    0.0000 C   0  0  0  0  0  0  0  0  0  0  0  0
   -1.5000    2.5981    0.0000 C   0  0  0  0  0  0  0  0  0  0  0  0
   -0.7500    3.8971    0.0000 C   0  0  0  0  0  0  0  0  0  0  0  0
   -1.5000    5.1962    0.0000 C   0  0  0  0  0  0  0  0  0  0  0  0
   -3.0000    5.1962    0.0000 C   0  0  0  0  0  0  0  0  0  0  0  0
   -3.7500    3.8971    0.0000 C   0  0  0  0  0  0  0  0  0  0  0  0
   -3.0000    2.5981    0.0000 C   0  0  0  0  0  0  0  0  0  0  0  0
   -1.5000    0.0000    0.0000 C   0  0  0  0  0  0  0  0  0  0  0  0
   -0.7500   -1.2990    0.0000 C   0  0  0  0  0  0  0  0  0  0  0  0
   -1.5000   -2.5981    0.0000 C   0  0  0  0  0  0  0  0  0  0  0  0
   -0.8899   -3.9684    0.0000 N   0  0  0  0  0  0  0  0  0  0  0  0
   -2.0046   -4.9721    0.0000 N   0  0  0  0  0  0  0  0  0  0  0  0
   -3.3037   -4.2221    0.0000 N   0  0  0  0  0  0  0  0  0  0  0  0
   -2.9918   -2.7549    0.0000 N   0  0  0  0  0  0  0  0  0  0  0  0
   -3.9955   -1.6402    0.0000 C   0  0  0  0  0  0  0  0  0  0  0  0
   -3.5320   -0.2136    0.0000 C   0  0  0  0  0  0  0  0  0  0  0  0
   -4.5356    0.9012    0.0000 C   0  0  0  0  0  0  0  0  0  0  0  0
   -6.0029    0.5893    0.0000 C   0  0  0  0  0  0  0  0  0  0  0  0
   -7.0066    1.7040    0.0000 C   0  0  0  0  0  0  0  0  0  0  0  0
   -6.5430    3.1306    0.0000 O   0  0  0  0  0  0  0  0  0  0  0  0
   -8.4738    1.3921    0.0000 N   0  0  0  0  0  0  0  0  0  0  0  0
   -9.4775    2.5068    0.0000 C   0  0  0  0  0  0  0  0  0  0  0  0
   -9.1656    3.9741    0.0000 N   0  0  0  0  0  0  0  0  0  0  0  0
  -10.4647    4.7241    0.0000 C   0  0  0  0  0  0  0  0  0  0  0  0
  -11.5794    3.7204    0.0000 N   0  0  0  0  0  0  0  0  0  0  0  0
  -10.9693    2.3501    0.0000 N   0  0  0  0  0  0  0  0  0  0  0  0
  -11.7193    1.0510    0.0000 C   0  0  0  0  0  0  0  0  0  0  0  0
  -13.2193    1.0510    0.0000 C   0  0  0  0  0  0  0  0  0  0  0  0
  -13.9693   -0.2480    0.0000 C   0  0  0  0  0  0  0  0  0  0  0  0
  -13.2193   -1.5471    0.0000 C   0  0  0  0  0  0  0  0  0  0  0  0
  -11.7193   -1.5471    0.0000 C   0  0  0  0  0  0  0  0  0  0  0  0
  -10.9693   -0.2480    0.0000 C   0  0  0  0  0  0  0  0  0  0  0  0
   -6.4664   -0.8373    0.0000 C   0  0  0  0  0  0  0  0  0  0  0  0
   -5.4627   -1.9520    0.0000 C   0  0  0  0  0  0  0  0  0  0  0  0
    5.4873   -1.7969    0.0000 C   0  0  0  0  0  0  0  0  0  0  0  0
    6.2373   -3.0960    0.0000 O   0  0  0  0  0  0  0  0  0  0  0  0
  1  2  1  0
  2  3  2  0
  3  4  1  0
  4  5  2  0
  5  6  1  0
  6  7  2  0
  7  8  1  0
  8  9  2  0
  9 10  1  0
 10 11  1  0
 11 12  2  0
 12 13  1  0
 13 14  2  0
 14 15  1  0
 15 16  2  0
 16 17  1  0
 17 18  2  0
 18 19  1  0
 19 20  2  0
 14 21  1  0
 21 22  2  0
 22 23  1  0
 23 24  2  0
 24 25  1  0
 25 26  2  0
 26 27  1  0
 27 28  1  0
 28 29  2  0
 29 30  1  0
 30 31  2  0
 31 32  1  0
 32 33  2  0
 32 34  1  0
 34 35  1  0
 35 36  2  0
 36 37  1  0
 37 38  2  0
 38 39  1  0
 39 40  1  0
 40 41  2  0
 41 42  1  0
 42 43  2  0
 43 44  1  0
 44 45  2  0
 31 46  1  0
 46 47  2  0
  5 48  1  0
 48 49  2  0
 48  2  1  0
 10  6  1  0
 22 11  1  0
 27 23  1  0
 47 28  1  0
 20 15  1  0
 39 35  1  0
 45 40  1  0
M  END
>  <Title>  (894) 
idABIJgen7

$$$$

     RDKit          2D

 65 74  0  0  0  0  0  0  0  0999 V2000
    3.0000    0.0000    0.0000 C   0  0  0  0  0  0  0  0  0  0  0  0
    1.5000    0.0000    0.0000 C   0  0  0  0  0  0  0  0  0  0  0  0
    0.7500   -1.2990    0.0000 C   0  0  0  0  0  0  0  0  0  0  0  0
   -0.7500   -1.2990    0.0000 C   0  0  0  0  0  0  0  0  0  0  0  0
   -1.5000    0.0000    0.0000 C   0  0  0  0  0  0  0  0  0  0  0  0
   -3.0000    0.0000    0.0000 C   0  0  0  0  0  0  0  0  0  0  0  0
   -3.7500   -1.2990    0.0000 O   0  0  0  0  0  0  0  0  0  0  0  0
   -3.7500    1.2990    0.0000 N   0  0  0  0  0  0  0  0  0  0  0  0
   -5.2500    1.2990    0.0000 C   0  0  0  0  0  0  0  0  0  0  0  0
   -6.1317    0.0855    0.0000 N   0  0  0  0  0  0  0  0  0  0  0  0
   -7.5583    0.5490    0.0000 C   0  0  0  0  0  0  0  0  0  0  0  0
   -7.5583    2.0490    0.0000 N   0  0  0  0  0  0  0  0  0  0  0  0
   -6.1317    2.5126    0.0000 N   0  0  0  0  0  0  0  0  0  0  0  0
   -5.6682    3.9391    0.0000 C   0  0  0  0  0  0  0  0  0  0  0  0
   -4.2009    4.2510    0.0000 C   0  0  0  0  0  0  0  0  0  0  0  0
   -3.7374    5.6776    0.0000 C   0  0  0  0  0  0  0  0  0  0  0  0
   -4.7411    6.7923    0.0000 C   0  0  0  0  0  0  0  0  0  0  0  0
   -4.2776    8.2189    0.0000 C   0  0  0  0  0  0  0  0  0  0  0  0
   -5.1593    9.4324    0.0000 N   0  0  0  0  0  0  0  0  0  0  0  0
   -4.2776   10.6460    0.0000 N   0  0  0  0  0  0  0  0  0  0  0  0
   -2.8510   10.1824    0.0000 N   0  0  0  0  0  0  0  0  0  0  0  0
   -2.8510    8.6824    0.0000 N   0  0  0  0  0  0  0  0  0  0  0  0
   -1.6375    7.8008    0.0000 C   0  0  0  0  0  0  0  0  0  0  0  0
   -1.7943    6.3090    0.0000 C   0  0  0  0  0  0  0  0  0  0  0  0
   -0.5807    5.4273    0.0000 C   0  0  0  0  0  0  0  0  0  0  0  0
    0.7896    6.0374    0.0000 C   0  0  0  0  0  0  0  0  0  0  0  0
    2.0031    5.1557    0.0000 C   0  0  0  0  0  0  0  0  0  0  0  0
    1.8463    3.6639    0.0000 C   0  0  0  0  0  0  0  0  0  0  0  0
    3.0598    2.7823    0.0000 C   0  0  0  0  0  0  0  0  0  0  0  0
    4.4302    3.3924    0.0000 C   0  0  0  0  0  0  0  0  0  0  0  0
    4.5870    4.8841    0.0000 C   0  0  0  0  0  0  0  0  0  0  0  0
    3.3734    5.7658    0.0000 C   0  0  0  0  0  0  0  0  0  0  0  0
    0.9464    7.5292    0.0000 C   0  0  0  0  0  0  0  0  0  0  0  0
   -0.2671    8.4109    0.0000 C   0  0  0  0  0  0  0  0  0  0  0  0
   -0.1104    9.9026    0.0000 C   0  0  0  0  0  0  0  0  0  0  0  0
    1.2600   10.5127    0.0000 C   0  0  0  0  0  0  0  0  0  0  0  0
    1.4168   12.0045    0.0000 C   0  0  0  0  0  0  0  0  0  0  0  0
    0.2032   12.8862    0.0000 C   0  0  0  0  0  0  0  0  0  0  0  0
   -1.1671   12.2761    0.0000 C   0  0  0  0  0  0  0  0  0  0  0  0
   -1.3239   10.7843    0.0000 C   0  0  0  0  0  0  0  0  0  0  0  0
   -6.2083    6.4805    0.0000 C   0  0  0  0  0  0  0  0  0  0  0  0
   -6.6718    5.0539    0.0000 C   0  0  0  0  0  0  0  0  0  0  0  0
   -8.1391    4.7420    0.0000 C   0  0  0  0  0  0  0  0  0  0  0  0
   -8.7492    3.3717    0.0000 C   0  0  0  0  0  0  0  0  0  0  0  0
  -10.2410    3.5285    0.0000 C   0  0  0  0  0  0  0  0  0  0  0  0
  -10.5528    4.9957    0.0000 C   0  0  0  0  0  0  0  0  0  0  0  0
  -11.9231    5.6058    0.0000 N   0  0  0  0  0  0  0  0  0  0  0  0
  -12.0799    7.0976    0.0000 C   0  0  0  0  0  0  0  0  0  0  0  0
  -10.8664    7.9793    0.0000 O   0  0  0  0  0  0  0  0  0  0  0  0
  -13.4503    7.7077    0.0000 C   0  0  0  0  0  0  0  0  0  0  0  0
  -14.7493    6.9577    0.0000 N   0  0  0  0  0  0  0  0  0  0  0  0
  -15.8640    7.9614    0.0000 N   0  0  0  0  0  0  0  0  0  0  0  0
  -15.2539    9.3317    0.0000 N   0  0  0  0  0  0  0  0  0  0  0  0
  -13.7621    9.1749    0.0000 N   0  0  0  0  0  0  0  0  0  0  0  0
  -12.7584   10.2896    0.0000 C   0  0  0  0  0  0  0  0  0  0  0  0
  -11.2912    9.9778    0.0000 C   0  0  0  0  0  0  0  0  0  0  0  0
  -10.2875   11.0925    0.0000 C   0  0  0  0  0  0  0  0  0  0  0  0
  -10.7510   12.5191    0.0000 C   0  0  0  0  0  0  0  0  0  0  0  0
  -12.2183   12.8309    0.0000 C   0  0  0  0  0  0  0  0  0  0  0  0
  -13.2220   11.7162    0.0000 C   0  0  0  0  0  0  0  0  0  0  0  0
   -9.2538    5.7457    0.0000 C   0  0  0  0  0  0  0  0  0  0  0  0
   -9.0970    7.2375    0.0000 O   0  0  0  0  0  0  0  0  0  0  0  0
   -0.7500    1.2990    0.0000 N   0  0  0  0  0  0  0  0  0  0  0  0
    0.7500    1.2990    0.0000 C   0  0  0  0  0  0  0  0  0  0  0  0
    1.5000    2.5981    0.0000 O   0  0  0  0  0  0  0  0  0  0  0  0
  1  2  1  0
  2  3  2  0
  3  4  1  0
  4  5  2  0
  5  6  1  0
  6  7  2  0
  6  8  1  0
  8  9  1  0
  9 10  2  0
 10 11  1  0
 11 12  2  0
 12 13  1  0
 13 14  1  0
 14 15  2  0
 15 16  1  0
 16 17  2  0
 17 18  1  0
 18 19  2  0
 19 20  1  0
 20 21  2  0
 21 22  1  0
 22 23  1  0
 23 24  2  0
 24 25  1  0
 25 26  2  0
 26 27  1  0
 27 28  2  0
 28 29  1  0
 29 30  2  0
 30 31  1  0
 31 32  2  0
 26 33  1  0
 33 34  2  0
 34 35  1  0
 35 36  2  0
 36 37  1  0
 37 38  2  0
 38 39  1  0
 39 40  2  0
 17 41  1  0
 41 42  2  0
 42 43  1  0
 43 44  2  0
 44 45  1  0
 45 46  2  0
 46 47  1  0
 47 48  1  0
 48 49  2  0
 48 50  1  0
 50 51  2  0
 51 52  1  0
 52 53  2  0
 53 54  1  0
 54 55  1  0
 55 56  2  0
 56 57  1  0
 57 58  2  0
 58 59  1  0
 59 60  2  0
 46 61  1  0
 61 62  2  0
  5 63  1  0
 63 64  1  0
 64 65  2  0
 64  2  1  0
 13  9  1  0
 42 14  1  0
 61 43  1  0
 22 18  1  0
 34 23  1  0
 40 35  1  0
 54 50  1  0
 60 55  1  0
 32 27  1  0
M  END
>  <Title>  (895) 
idABIKgen7

$$$$

     RDKit          2D

 28 31  0  0  0  0  0  0  0  0999 V2000
    3.0000    0.0000    0.0000 C   0  0  0  0  0  0  0  0  0  0  0  0
    1.5000    0.0000    0.0000 C   0  0  0  0  0  0  0  0  0  0  0  0
    0.7500   -1.2990    0.0000 C   0  0  0  0  0  0  0  0  0  0  0  0
   -0.7500   -1.2990    0.0000 C   0  0  0  0  0  0  0  0  0  0  0  0
   -1.5000    0.0000    0.0000 C   0  0  0  0  0  0  0  0  0  0  0  0
   -3.0000    0.0000    0.0000 C   0  0  0  0  0  0  0  0  0  0  0  0
   -3.7500    1.2990    0.0000 C   0  0  0  0  0  0  0  0  0  0  0  0
   -5.2500    1.2990    0.0000 C   0  0  0  0  0  0  0  0  0  0  0  0
   -6.0000    0.0000    0.0000 C   0  0  0  0  0  0  0  0  0  0  0  0
   -5.2500   -1.2990    0.0000 C   0  0  0  0  0  0  0  0  0  0  0  0
   -3.7500   -1.2990    0.0000 C   0  0  0  0  0  0  0  0  0  0  0  0
   -3.0000   -2.5981    0.0000 N   0  0  0  0  0  0  0  0  0  0  0  0
   -1.5000   -2.5981    0.0000 N   0  0  0  0  0  0  0  0  0  0  0  0
   -0.7500   -3.8971    0.0000 N   0  0  0  0  0  0  0  0  0  0  0  0
   -1.5000   -5.1962    0.0000 N   0  0  0  0  0  0  0  0  0  0  0  0
   -3.0000   -5.1962    0.0000 N   0  0  0  0  0  0  0  0  0  0  0  0
   -3.7500   -3.8971    0.0000 N   0  0  0  0  0  0  0  0  0  0  0  0
   -5.2500   -3.8971    0.0000 C   0  0  0  0  0  0  0  0  0  0  0  0
   -6.0000   -5.1962    0.0000 C   0  0  0  0  0  0  0  0  0  0  0  0
   -7.5000   -5.1962    0.0000 C   0  0  0  0  0  0  0  0  0  0  0  0
   -8.2500   -3.8971    0.0000 C   0  0  0  0  0  0  0  0  0  0  0  0
   -9.7500   -3.8971    0.0000 C   0  0  0  0  0  0  0  0  0  0  0  0
   -7.5000   -2.5981    0.0000 C   0  0  0  0  0  0  0  0  0  0  0  0
   -8.2500   -1.2990    0.0000 O   0  0  0  0  0  0  0  0  0  0  0  0
   -6.0000   -2.5981    0.0000 N   0  0  0  0  0  0  0  0  0  0  0  0
   -0.7500    1.2990    0.0000 C   0  0  0  0  0  0  0  0  0  0  0  0
   -1.5000    2.5981    0.0000 O   0  0  0  0  0  0  0  0  0  0  0  0
    0.7500    1.2990    0.0000 N   0  0  0  0  0  0  0  0  0  0  0  0
  1  2  1  0
  2  3  2  0
  3  4  1  0
  4  5  2  0
  5  6  1  0
  6  7  2  0
  7  8  1  0
  8  9  2  0
  9 10  1  0
 10 11  2  0
 11 12  1  0
 12 13  1  0
 13 14  2  0
 14 15  1  0
 15 16  2  0
 16 17  1  0
 17 18  1  0
 18 19  2  0
 19 20  1  0
 20 21  2  0
 21 22  1  0
 21 23  1  0
 23 24  2  0
 23 25  1  0
  5 26  1  0
 26 27  2  0
 26 28  1  0
 28  2  1  0
 11  6  1  0
 17 12  1  0
 25 18  1  0
M  END
>  <Title>  (896) 
idABILgen7

$$$$

     RDKit          2D

 32 36  0  0  0  0  0  0  0  0999 V2000
    6.0575    2.7435    0.0000 C   0  0  0  0  0  0  0  0  0  0  0  0
    5.6369    1.3036    0.0000 C   0  0  0  0  0  0  0  0  0  0  0  0
    4.1571    1.0579    0.0000 C   0  0  0  0  0  0  0  0  0  0  0  0
    3.4266   -0.2522    0.0000 C   0  0  0  0  0  0  0  0  0  0  0  0
    3.9955   -1.6402    0.0000 C   0  0  0  0  0  0  0  0  0  0  0  0
    2.9918   -2.7549    0.0000 C   0  0  0  0  0  0  0  0  0  0  0  0
    3.3037   -4.2221    0.0000 N   0  0  0  0  0  0  0  0  0  0  0  0
    2.0046   -4.9721    0.0000 N   0  0  0  0  0  0  0  0  0  0  0  0
    0.8899   -3.9684    0.0000 N   0  0  0  0  0  0  0  0  0  0  0  0
    1.5000   -2.5981    0.0000 N   0  0  0  0  0  0  0  0  0  0  0  0
    0.7500   -1.2990    0.0000 C   0  0  0  0  0  0  0  0  0  0  0  0
    1.5000    0.0000    0.0000 C   0  0  0  0  0  0  0  0  0  0  0  0
    0.7500    1.2990    0.0000 C   0  0  0  0  0  0  0  0  0  0  0  0
   -0.7500    1.2990    0.0000 C   0  0  0  0  0  0  0  0  0  0  0  0
   -1.5000    0.0000    0.0000 C   0  0  0  0  0  0  0  0  0  0  0  0
   -0.7500   -1.2990    0.0000 C   0  0  0  0  0  0  0  0  0  0  0  0
   -2.1766   -0.8355    0.0000 C   0  0  0  0  0  0  0  0  0  0  0  0
   -3.3901   -1.7172    0.0000 O   0  0  0  0  0  0  0  0  0  0  0  0
   -2.1766    0.6645    0.0000 C   0  0  0  0  0  0  0  0  0  0  0  0
   -3.3901    1.5462    0.0000 C   0  0  0  0  0  0  0  0  0  0  0  0
   -3.2333    3.0379    0.0000 C   0  0  0  0  0  0  0  0  0  0  0  0
   -4.4468    3.9196    0.0000 C   0  0  0  0  0  0  0  0  0  0  0  0
   -5.7677    3.2088    0.0000 C   0  0  0  0  0  0  0  0  0  0  0  0
   -7.1470    3.7984    0.0000 N   0  0  0  0  0  0  0  0  0  0  0  0
   -7.5461    5.2443    0.0000 N   0  0  0  0  0  0  0  0  0  0  0  0
   -6.6644    6.4578    0.0000 N   0  0  0  0  0  0  0  0  0  0  0  0
   -5.1659    6.5251    0.0000 N   0  0  0  0  0  0  0  0  0  0  0  0
   -4.1790    5.3955    0.0000 C   0  0  0  0  0  0  0  0  0  0  0  0
    5.4353   -2.0608    0.0000 N   0  0  0  0  0  0  0  0  0  0  0  0
    6.6619   -1.1974    0.0000 C   0  0  0  0  0  0  0  0  0  0  0  0
    7.9720   -1.9279    0.0000 O   0  0  0  0  0  0  0  0  0  0  0  0
    6.7516    0.2999    0.0000 C   0  0  0  0  0  0  0  0  0  0  0  0
  1  2  1  0
  2  3  2  0
  3  4  1  0
  4  5  2  0
  5  6  1  0
  6  7  2  0
  7  8  1  0
  8  9  2  0
  9 10  1  0
 10 11  1  0
 11 12  2  0
 12 13  1  0
 13 14  2  0
 14 15  1  0
 15 16  2  0
 16 17  1  0
 17 18  2  0
 17 19  1  0
 19 20  2  3
 20 21  1  0
 21 22  2  3
 22 23  1  0
 23 24  2  0
 24 25  1  0
 25 26  2  0
 26 27  1  0
 27 28  2  0
  5 29  1  0
 29 30  1  0
 30 31  2  0
 30 32  1  0
 32  2  1  0
 10  6  1  0
 16 11  1  0
 28 22  1  0
 19 14  1  0
M  END
>  <Title>  (897) 
idABIMgen7

$$$$

     RDKit          2D

 14 14  0  0  0  0  0  0  0  0999 V2000
    6.5490    0.5490    0.0000 C   0  0  0  0  0  0  0  0  0  0  0  0
    5.2500    1.2990    0.0000 C   0  0  0  0  0  0  0  0  0  0  0  0
    3.9510    2.0490    0.0000 C   0  0  0  0  0  0  0  0  0  0  0  0
    6.0000    2.5981    0.0000 C   0  0  0  0  0  0  0  0  0  0  0  0
    4.5000    0.0000    0.0000 C   0  0  0  0  0  0  0  0  0  0  0  0
    3.0000    0.0000    0.0000 C   0  0  0  0  0  0  0  0  0  0  0  0
    3.0000   -1.5000    0.0000 C   0  0  0  0  0  0  0  0  0  0  0  0
    3.0000    1.5000    0.0000 C   0  0  0  0  0  0  0  0  0  0  0  0
    1.5000    0.0000    0.0000 C   0  0  0  0  0  0  0  0  0  0  0  0
    0.7500   -1.2990    0.0000 C   0  0  0  0  0  0  0  0  0  0  0  0
   -0.7500   -1.2990    0.0000 C   0  0  0  0  0  0  0  0  0  0  0  0
   -1.5000    0.0000    0.0000 C   0  0  0  0  0  0  0  0  0  0  0  0
   -0.7500    1.2990    0.0000 C   0  0  0  0  0  0  0  0  0  0  0  0
    0.7500    1.2990    0.0000 C   0  0  0  0  0  0  0  0  0  0  0  0
  1  2  1  0
  2  3  1  0
  2  4  1  0
  2  5  1  0
  5  6  1  0
  6  7  1  0
  6  8  1  0
  6  9  1  0
  9 10  2  0
 10 11  1  0
 11 12  2  0
 12 13  1  0
 13 14  2  0
 14  9  1  0
M  END
>  <Title>  (898) 
idABINgen7

$$$$

     RDKit          2D

 27 30  0  0  0  0  0  0  0  0999 V2000
   -0.0000    3.4598    0.0000 C   0  0  0  0  0  0  0  0  0  0  0  0
   -0.0000    1.9598    0.0000 C   0  0  0  0  0  0  0  0  0  0  0  0
   -1.3858    1.3858    0.0000 C   0  0  0  0  0  0  0  0  0  0  0  0
   -1.9598    0.0000    0.0000 C   0  0  0  0  0  0  0  0  0  0  0  0
   -1.3858   -1.3858    0.0000 C   0  0  0  0  0  0  0  0  0  0  0  0
   -2.4465   -2.4465    0.0000 C   0  0  0  0  0  0  0  0  0  0  0  0
   -2.2118   -3.9280    0.0000 N   0  0  0  0  0  0  0  0  0  0  0  0
   -3.5483   -4.6090    0.0000 N   0  0  0  0  0  0  0  0  0  0  0  0
   -4.6090   -3.5483    0.0000 N   0  0  0  0  0  0  0  0  0  0  0  0
   -3.9280   -2.2118    0.0000 N   0  0  0  0  0  0  0  0  0  0  0  0
   -4.6090   -0.8753    0.0000 C   0  0  0  0  0  0  0  0  0  0  0  0
   -3.7920    0.3827    0.0000 C   0  0  0  0  0  0  0  0  0  0  0  0
   -4.4730    1.7192    0.0000 C   0  0  0  0  0  0  0  0  0  0  0  0
   -5.9710    1.7977    0.0000 C   0  0  0  0  0  0  0  0  0  0  0  0
   -6.6520    3.1342    0.0000 C   0  0  0  0  0  0  0  0  0  0  0  0
   -5.8350    4.3922    0.0000 C   0  0  0  0  0  0  0  0  0  0  0  0
   -6.5160    5.7287    0.0000 C   0  0  0  0  0  0  0  0  0  0  0  0
   -8.0139    5.8072    0.0000 C   0  0  0  0  0  0  0  0  0  0  0  0
   -8.8309    4.5492    0.0000 C   0  0  0  0  0  0  0  0  0  0  0  0
   -8.1499    3.2127    0.0000 C   0  0  0  0  0  0  0  0  0  0  0  0
   -6.7879    0.5397    0.0000 C   0  0  0  0  0  0  0  0  0  0  0  0
   -6.1069   -0.7968    0.0000 C   0  0  0  0  0  0  0  0  0  0  0  0
    0.0000   -1.9598    0.0000 C   0  0  0  0  0  0  0  0  0  0  0  0
    0.0000   -3.4598    0.0000 C   0  0  0  0  0  0  0  0  0  0  0  0
    1.3858   -1.3858    0.0000 C   0  0  0  0  0  0  0  0  0  0  0  0
    1.9598    0.0000    0.0000 C   0  0  0  0  0  0  0  0  0  0  0  0
    1.3858    1.3858    0.0000 C   0  0  0  0  0  0  0  0  0  0  0  0
  1  2  1  0
  2  3  2  0
  3  4  1  0
  4  5  2  0
  5  6  1  0
  6  7  2  0
  7  8  1  0
  8  9  2  0
  9 10  1  0
 10 11  1  0
 11 12  2  0
 12 13  1  0
 13 14  2  0
 14 15  1  0
 15 16  2  0
 16 17  1  0
 17 18  2  0
 18 19  1  0
 19 20  2  0
 14 21  1  0
 21 22  2  0
  5 23  1  0
 23 24  1  0
 23 25  2  0
 25 26  1  0
 26 27  2  0
 27  2  1  0
 10  6  1  0
 22 11  1  0
 20 15  1  0
M  END
>  <Title>  (899) 
idABIOgen7

$$$$

     RDKit          2D

 44 49  0  0  0  0  0  0  0  0999 V2000
    3.0000    0.0000    0.0000 C   0  0  0  0  0  0  0  0  0  0  0  0
    1.5000    0.0000    0.0000 C   0  0  0  0  0  0  0  0  0  0  0  0
    0.7500   -1.2990    0.0000 C   0  0  0  0  0  0  0  0  0  0  0  0
   -0.7500   -1.2990    0.0000 C   0  0  0  0  0  0  0  0  0  0  0  0
   -1.5000    0.0000    0.0000 C   0  0  0  0  0  0  0  0  0  0  0  0
   -3.0000    0.0000    0.0000 C   0  0  0  0  0  0  0  0  0  0  0  0
   -3.7500   -1.2990    0.0000 O   0  0  0  0  0  0  0  0  0  0  0  0
   -3.7500    1.2990    0.0000 N   0  0  0  0  0  0  0  0  0  0  0  0
   -5.2500    1.2990    0.0000 C   0  0  0  0  0  0  0  0  0  0  0  0
   -6.1317    0.0855    0.0000 N   0  0  0  0  0  0  0  0  0  0  0  0
   -7.5583    0.5490    0.0000 N   0  0  0  0  0  0  0  0  0  0  0  0
   -7.5583    2.0490    0.0000 N   0  0  0  0  0  0  0  0  0  0  0  0
   -6.1317    2.5126    0.0000 N   0  0  0  0  0  0  0  0  0  0  0  0
   -5.6682    3.9391    0.0000 C   0  0  0  0  0  0  0  0  0  0  0  0
   -4.2009    4.2510    0.0000 C   0  0  0  0  0  0  0  0  0  0  0  0
   -3.7374    5.6776    0.0000 C   0  0  0  0  0  0  0  0  0  0  0  0
   -4.7411    6.7923    0.0000 C   0  0  0  0  0  0  0  0  0  0  0  0
   -4.2776    8.2189    0.0000 C   0  0  0  0  0  0  0  0  0  0  0  0
   -5.2813    9.3336    0.0000 O   0  0  0  0  0  0  0  0  0  0  0  0
   -2.8104    8.5308    0.0000 N   0  0  0  0  0  0  0  0  0  0  0  0
   -2.3468    9.9574    0.0000 C   0  0  0  0  0  0  0  0  0  0  0  0
   -3.3505   11.0721    0.0000 O   0  0  0  0  0  0  0  0  0  0  0  0
   -0.8796   10.2692    0.0000 C   0  0  0  0  0  0  0  0  0  0  0  0
    0.1241    9.1545    0.0000 C   0  0  0  0  0  0  0  0  0  0  0  0
    1.5913    9.4664    0.0000 C   0  0  0  0  0  0  0  0  0  0  0  0
    2.0548   10.8930    0.0000 C   0  0  0  0  0  0  0  0  0  0  0  0
    1.0511   12.0077    0.0000 C   0  0  0  0  0  0  0  0  0  0  0  0
   -0.4161   11.6958    0.0000 C   0  0  0  0  0  0  0  0  0  0  0  0
   -6.2083    6.4805    0.0000 C   0  0  0  0  0  0  0  0  0  0  0  0
   -6.6718    5.0539    0.0000 C   0  0  0  0  0  0  0  0  0  0  0  0
   -8.1391    4.7420    0.0000 C   0  0  0  0  0  0  0  0  0  0  0  0
   -9.1428    5.8567    0.0000 C   0  0  0  0  0  0  0  0  0  0  0  0
  -10.6100    5.5448    0.0000 C   0  0  0  0  0  0  0  0  0  0  0  0
  -11.0735    4.1183    0.0000 C   0  0  0  0  0  0  0  0  0  0  0  0
  -12.5407    3.8064    0.0000 C   0  0  0  0  0  0  0  0  0  0  0  0
  -13.5444    4.9211    0.0000 C   0  0  0  0  0  0  0  0  0  0  0  0
  -15.0117    4.6092    0.0000 C   0  0  0  0  0  0  0  0  0  0  0  0
  -15.4752    3.1827    0.0000 C   0  0  0  0  0  0  0  0  0  0  0  0
  -14.4715    2.0679    0.0000 C   0  0  0  0  0  0  0  0  0  0  0  0
  -13.0043    2.3798    0.0000 C   0  0  0  0  0  0  0  0  0  0  0  0
  -10.0698    3.0035    0.0000 C   0  0  0  0  0  0  0  0  0  0  0  0
   -8.6026    3.3154    0.0000 C   0  0  0  0  0  0  0  0  0  0  0  0
   -0.7500    1.2990    0.0000 N   0  0  0  0  0  0  0  0  0  0  0  0
    0.7500    1.2990    0.0000 N   0  0  0  0  0  0  0  0  0  0  0  0
  1  2  1  0
  2  3  2  0
  3  4  1  0
  4  5  2  0
  5  6  1  0
  6  7  2  0
  6  8  1  0
  8  9  1  0
  9 10  2  0
 10 11  1  0
 11 12  2  0
 12 13  1  0
 13 14  1  0
 14 15  2  0
 15 16  1  0
 16 17  2  0
 17 18  1  0
 18 19  2  0
 18 20  1  0
 20 21  1  0
 21 22  2  0
 21 23  1  0
 23 24  2  0
 24 25  1  0
 25 26  2  0
 26 27  1  0
 27 28  2  0
 17 29  1  0
 29 30  2  0
 30 31  1  0
 31 32  2  0
 32 33  1  0
 33 34  2  0
 34 35  1  0
 35 36  2  0
 36 37  1  0
 37 38  2  0
 38 39  1  0
 39 40  2  0
 34 41  1  0
 41 42  2  0
  5 43  1  0
 43 44  2  0
 44  2  1  0
 13  9  1  0
 30 14  1  0
 42 31  1  0
 28 23  1  0
 40 35  1  0
M  END
>  <Title>  (900) 
idABIPgen7

$$$$

     RDKit          2D

 23 23  0  0  0  0  0  0  0  0999 V2000
    6.2943    0.0000    0.0000 C   0  0  0  0  0  0  0  0  0  0  0  0
    4.7943    0.0000    0.0000 C   0  0  0  0  0  0  0  0  0  0  0  0
    4.5597   -1.4815    0.0000 C   0  0  0  0  0  0  0  0  0  0  0  0
    3.8787   -2.8180    0.0000 C   0  0  0  0  0  0  0  0  0  0  0  0
    2.8180   -3.8787    0.0000 C   0  0  0  0  0  0  0  0  0  0  0  0
    1.4815   -4.5597    0.0000 C   0  0  0  0  0  0  0  0  0  0  0  0
   -0.0000   -4.7943    0.0000 C   0  0  0  0  0  0  0  0  0  0  0  0
   -1.4815   -4.5597    0.0000 C   0  0  0  0  0  0  0  0  0  0  0  0
   -2.8180   -3.8787    0.0000 C   0  0  0  0  0  0  0  0  0  0  0  0
   -3.8787   -2.8180    0.0000 C   0  0  0  0  0  0  0  0  0  0  0  0
   -4.5597   -1.4815    0.0000 C   0  0  0  0  0  0  0  0  0  0  0  0
   -4.7943    0.0000    0.0000 C   0  0  0  0  0  0  0  0  0  0  0  0
   -4.5597    1.4815    0.0000 C   0  0  0  0  0  0  0  0  0  0  0  0
   -3.8787    2.8180    0.0000 C   0  0  0  0  0  0  0  0  0  0  0  0
   -2.8180    3.8787    0.0000 C   0  0  0  0  0  0  0  0  0  0  0  0
   -1.4815    4.5597    0.0000 C   0  0  0  0  0  0  0  0  0  0  0  0
    0.0000    4.7943    0.0000 C   0  0  0  0  0  0  0  0  0  0  0  0
    1.4815    4.5597    0.0000 C   0  0  0  0  0  0  0  0  0  0  0  0
    2.8180    3.8787    0.0000 C   0  0  0  0  0  0  0  0  0  0  0  0
    3.6997    5.0922    0.0000 C   0  0  0  0  0  0  0  0  0  0  0  0
    3.8787    2.8180    0.0000 C   0  0  0  0  0  0  0  0  0  0  0  0
    5.0922    3.6997    0.0000 O   0  0  0  0  0  0  0  0  0  0  0  0
    4.5597    1.4815    0.0000 N   0  0  0  0  0  0  0  0  0  0  0  0
  1  2  1  0
  2  3  2  0
  3  4  1  0
  4  5  2  0
  5  6  1  0
  6  7  2  0
  7  8  1  0
  8  9  2  0
  9 10  1  0
 10 11  2  0
 11 12  1  0
 12 13  2  0
 13 14  1  0
 14 15  2  0
 15 16  1  0
 16 17  2  0
 17 18  1  0
 18 19  2  0
 19 20  1  0
 19 21  1  0
 21 22  2  0
 21 23  1  0
 23  2  1  0
M  END
>  <Title>  (901) 
idABIQgen7

$$$$

     RDKit          2D

 35 39  0  0  0  0  0  0  0  0999 V2000
    3.0000    0.0000    0.0000 C   0  0  0  0  0  0  0  0  0  0  0  0
    1.5000    0.0000    0.0000 C   0  0  0  0  0  0  0  0  0  0  0  0
    0.7500   -1.2990    0.0000 C   0  0  0  0  0  0  0  0  0  0  0  0
   -0.7500   -1.2990    0.0000 C   0  0  0  0  0  0  0  0  0  0  0  0
   -1.5000    0.0000    0.0000 C   0  0  0  0  0  0  0  0  0  0  0  0
   -3.0000    0.0000    0.0000 N   0  0  0  0  0  0  0  0  0  0  0  0
   -3.7500    1.2990    0.0000 N   0  0  0  0  0  0  0  0  0  0  0  0
   -5.2500    1.2990    0.0000 N   0  0  0  0  0  0  0  0  0  0  0  0
   -6.0000    0.0000    0.0000 N   0  0  0  0  0  0  0  0  0  0  0  0
   -5.2500   -1.2990    0.0000 N   0  0  0  0  0  0  0  0  0  0  0  0
   -3.7500   -1.2990    0.0000 N   0  0  0  0  0  0  0  0  0  0  0  0
   -3.0000   -2.5981    0.0000 C   0  0  0  0  0  0  0  0  0  0  0  0
   -3.7500   -3.8971    0.0000 C   0  0  0  0  0  0  0  0  0  0  0  0
   -3.0000   -5.1962    0.0000 C   0  0  0  0  0  0  0  0  0  0  0  0
   -1.5000   -5.1962    0.0000 C   0  0  0  0  0  0  0  0  0  0  0  0
   -0.7500   -6.4952    0.0000 C   0  0  0  0  0  0  0  0  0  0  0  0
    0.7418   -6.6520    0.0000 N   0  0  0  0  0  0  0  0  0  0  0  0
    1.0537   -8.1192    0.0000 N   0  0  0  0  0  0  0  0  0  0  0  0
   -0.2454   -8.8692    0.0000 N   0  0  0  0  0  0  0  0  0  0  0  0
   -1.3601   -7.8655    0.0000 N   0  0  0  0  0  0  0  0  0  0  0  0
   -2.8273   -8.1774    0.0000 C   0  0  0  0  0  0  0  0  0  0  0  0
   -3.8310   -7.0627    0.0000 C   0  0  0  0  0  0  0  0  0  0  0  0
   -5.2982   -7.3745    0.0000 C   0  0  0  0  0  0  0  0  0  0  0  0
   -5.7618   -8.8011    0.0000 C   0  0  0  0  0  0  0  0  0  0  0  0
   -7.2290   -9.1130    0.0000 C   0  0  0  0  0  0  0  0  0  0  0  0
   -7.6925  -10.5396    0.0000 O   0  0  0  0  0  0  0  0  0  0  0  0
   -8.2327   -7.9983    0.0000 N   0  0  0  0  0  0  0  0  0  0  0  0
   -9.6999   -8.3101    0.0000 O   0  0  0  0  0  0  0  0  0  0  0  0
   -4.7581   -9.9158    0.0000 C   0  0  0  0  0  0  0  0  0  0  0  0
   -3.2909   -9.6040    0.0000 C   0  0  0  0  0  0  0  0  0  0  0  0
   -0.7500   -3.8971    0.0000 C   0  0  0  0  0  0  0  0  0  0  0  0
   -1.5000   -2.5981    0.0000 C   0  0  0  0  0  0  0  0  0  0  0  0
   -0.7500    1.2990    0.0000 C   0  0  0  0  0  0  0  0  0  0  0  0
   -1.5000    2.5981    0.0000 O   0  0  0  0  0  0  0  0  0  0  0  0
    0.7500    1.2990    0.0000 N   0  0  0  0  0  0  0  0  0  0  0  0
  1  2  1  0
  2  3  2  0
  3  4  1  0
  4  5  2  0
  5  6  1  0
  6  7  1  0
  7  8  2  0
  8  9  1  0
  9 10  2  0
 10 11  1  0
 11 12  1  0
 12 13  2  0
 13 14  1  0
 14 15  2  0
 15 16  1  0
 16 17  2  0
 17 18  1  0
 18 19  2  0
 19 20  1  0
 20 21  1  0
 21 22  2  0
 22 23  1  0
 23 24  2  0
 24 25  1  0
 25 26  2  0
 25 27  1  0
 27 28  1  0
 24 29  1  0
 29 30  1  0
 15 31  1  0
 31 32  1  0
  5 33  1  0
 33 34  2  0
 33 35  1  0
 35  2  1  0
 11  6  1  0
 32 12  1  0
 20 16  1  0
 30 21  1  0
M  END
>  <Title>  (902) 
idABIRgen7

$$$$

     RDKit          2D

 14 14  0  0  0  0  0  0  0  0999 V2000
    4.6771   -1.2990    0.0000 C   0  0  0  0  0  0  0  0  0  0  0  0
    3.9271    0.0000    0.0000 C   0  0  0  0  0  0  0  0  0  0  0  0
    2.4271    0.0000    0.0000 C   0  0  0  0  0  0  0  0  0  0  0  0
    1.9635   -1.4266    0.0000 C   0  0  0  0  0  0  0  0  0  0  0  0
    0.7500   -2.3083    0.0000 C   0  0  0  0  0  0  0  0  0  0  0  0
   -0.7500   -2.3083    0.0000 C   0  0  0  0  0  0  0  0  0  0  0  0
   -1.9635   -1.4266    0.0000 C   0  0  0  0  0  0  0  0  0  0  0  0
   -2.4271    0.0000    0.0000 C   0  0  0  0  0  0  0  0  0  0  0  0
   -3.9271    0.0000    0.0000 F   0  0  0  0  0  0  0  0  0  0  0  0
   -1.9635    1.4266    0.0000 C   0  0  0  0  0  0  0  0  0  0  0  0
   -3.1771    2.3083    0.0000 C   0  0  0  0  0  0  0  0  0  0  0  0
   -0.7500    2.3083    0.0000 C   0  0  0  0  0  0  0  0  0  0  0  0
    0.7500    2.3083    0.0000 C   0  0  0  0  0  0  0  0  0  0  0  0
    1.9635    1.4266    0.0000 C   0  0  0  0  0  0  0  0  0  0  0  0
  1  2  1  0
  2  3  1  0
  3  4  2  0
  4  5  1  0
  5  6  2  0
  6  7  1  0
  7  8  2  0
  8  9  1  0
  8 10  1  0
 10 11  1  0
 10 12  2  0
 12 13  1  0
 13 14  2  0
 14  3  1  0
M  END
>  <Title>  (903) 
idABISgen7

$$$$

     RDKit          2D

 39 44  0  0  0  0  0  0  0  0999 V2000
    3.0000    0.0000    0.0000 C   0  0  0  0  0  0  0  0  0  0  0  0
    1.5000    0.0000    0.0000 C   0  0  0  0  0  0  0  0  0  0  0  0
    0.7500   -1.2990    0.0000 C   0  0  0  0  0  0  0  0  0  0  0  0
   -0.7500   -1.2990    0.0000 C   0  0  0  0  0  0  0  0  0  0  0  0
   -1.5000    0.0000    0.0000 C   0  0  0  0  0  0  0  0  0  0  0  0
   -3.0000    0.0000    0.0000 C   0  0  0  0  0  0  0  0  0  0  0  0
   -3.8817   -1.2135    0.0000 N   0  0  0  0  0  0  0  0  0  0  0  0
   -5.3083   -0.7500    0.0000 N   0  0  0  0  0  0  0  0  0  0  0  0
   -5.3083    0.7500    0.0000 N   0  0  0  0  0  0  0  0  0  0  0  0
   -3.8817    1.2135    0.0000 N   0  0  0  0  0  0  0  0  0  0  0  0
   -3.4182    2.6401    0.0000 C   0  0  0  0  0  0  0  0  0  0  0  0
   -1.9509    2.9520    0.0000 C   0  0  0  0  0  0  0  0  0  0  0  0
   -1.4874    4.3786    0.0000 C   0  0  0  0  0  0  0  0  0  0  0  0
   -2.4911    5.4933    0.0000 C   0  0  0  0  0  0  0  0  0  0  0  0
   -2.0276    6.9199    0.0000 C   0  0  0  0  0  0  0  0  0  0  0  0
   -2.9093    8.1334    0.0000 N   0  0  0  0  0  0  0  0  0  0  0  0
   -2.0276    9.3469    0.0000 N   0  0  0  0  0  0  0  0  0  0  0  0
   -0.6010    8.8834    0.0000 N   0  0  0  0  0  0  0  0  0  0  0  0
   -0.6010    7.3834    0.0000 N   0  0  0  0  0  0  0  0  0  0  0  0
    0.6125    6.5017    0.0000 C   0  0  0  0  0  0  0  0  0  0  0  0
    0.4557    5.0099    0.0000 C   0  0  0  0  0  0  0  0  0  0  0  0
    1.6693    4.1283    0.0000 C   0  0  0  0  0  0  0  0  0  0  0  0
    3.0396    4.7384    0.0000 C   0  0  0  0  0  0  0  0  0  0  0  0
    3.1964    6.2301    0.0000 C   0  0  0  0  0  0  0  0  0  0  0  0
    1.9829    7.1118    0.0000 C   0  0  0  0  0  0  0  0  0  0  0  0
   -3.9583    5.1814    0.0000 C   0  0  0  0  0  0  0  0  0  0  0  0
   -4.4218    3.7548    0.0000 C   0  0  0  0  0  0  0  0  0  0  0  0
   -5.8891    3.4430    0.0000 C   0  0  0  0  0  0  0  0  0  0  0  0
   -6.8928    4.5577    0.0000 C   0  0  0  0  0  0  0  0  0  0  0  0
   -8.3600    4.2458    0.0000 C   0  0  0  0  0  0  0  0  0  0  0  0
   -8.8235    2.8192    0.0000 C   0  0  0  0  0  0  0  0  0  0  0  0
  -10.2907    2.5074    0.0000 C   0  0  0  0  0  0  0  0  0  0  0  0
  -10.7543    1.0808    0.0000 O   0  0  0  0  0  0  0  0  0  0  0  0
  -11.2944    3.6221    0.0000 N   0  0  0  0  0  0  0  0  0  0  0  0
  -12.7617    3.3102    0.0000 O   0  0  0  0  0  0  0  0  0  0  0  0
   -7.8198    1.7045    0.0000 C   0  0  0  0  0  0  0  0  0  0  0  0
   -6.3526    2.0164    0.0000 C   0  0  0  0  0  0  0  0  0  0  0  0
   -0.7500    1.2990    0.0000 C   0  0  0  0  0  0  0  0  0  0  0  0
    0.7500    1.2990    0.0000 C   0  0  0  0  0  0  0  0  0  0  0  0
  1  2  1  0
  2  3  2  0
  3  4  1  0
  4  5  2  0
  5  6  1  0
  6  7  2  0
  7  8  1  0
  8  9  2  0
  9 10  1  0
 10 11  1  0
 11 12  2  0
 12 13  1  0
 13 14  2  0
 14 15  1  0
 15 16  2  0
 16 17  1  0
 17 18  2  0
 18 19  1  0
 19 20  1  0
 20 21  2  0
 21 22  1  0
 22 23  2  0
 23 24  1  0
 24 25  2  0
 14 26  1  0
 26 27  2  0
 27 28  1  0
 28 29  2  0
 29 30  1  0
 30 31  2  0
 31 32  1  0
 32 33  2  0
 32 34  1  0
 34 35  1  0
 31 36  1  0
 36 37  1  0
  5 38  1  0
 38 39  2  0
 39  2  1  0
 10  6  1  0
 27 11  1  0
 37 28  1  0
 19 15  1  0
 25 20  1  0
M  END
>  <Title>  (904) 
idABITgen7

$$$$

     RDKit          2D

 29 33  0  0  0  0  0  0  0  0999 V2000
   -1.3834    5.1163    0.0000 C   0  0  0  0  0  0  0  0  0  0  0  0
   -1.2266    3.6245    0.0000 O   0  0  0  0  0  0  0  0  0  0  0  0
    0.1437    3.0144    0.0000 C   0  0  0  0  0  0  0  0  0  0  0  0
    0.4556    1.5472    0.0000 C   0  0  0  0  0  0  0  0  0  0  0  0
    1.9474    1.3904    0.0000 C   0  0  0  0  0  0  0  0  0  0  0  0
    2.5575    2.7607    0.0000 C   0  0  0  0  0  0  0  0  0  0  0  0
    4.0247    3.0725    0.0000 C   0  0  0  0  0  0  0  0  0  0  0  0
    4.6348    4.4429    0.0000 N   0  0  0  0  0  0  0  0  0  0  0  0
    6.1266    4.2861    0.0000 N   0  0  0  0  0  0  0  0  0  0  0  0
    6.4385    2.8189    0.0000 N   0  0  0  0  0  0  0  0  0  0  0  0
    5.1394    2.0689    0.0000 N   0  0  0  0  0  0  0  0  0  0  0  0
    4.9826    0.5771    0.0000 C   0  0  0  0  0  0  0  0  0  0  0  0
    6.0974   -0.4266    0.0000 C   0  0  0  0  0  0  0  0  0  0  0  0
    5.4873   -1.7969    0.0000 C   0  0  0  0  0  0  0  0  0  0  0  0
    3.9955   -1.6402    0.0000 C   0  0  0  0  0  0  0  0  0  0  0  0
    2.9918   -2.7549    0.0000 C   0  0  0  0  0  0  0  0  0  0  0  0
    1.5000   -2.5981    0.0000 N   0  0  0  0  0  0  0  0  0  0  0  0
    0.8899   -3.9684    0.0000 N   0  0  0  0  0  0  0  0  0  0  0  0
    2.0046   -4.9721    0.0000 N   0  0  0  0  0  0  0  0  0  0  0  0
    3.3037   -4.2221    0.0000 N   0  0  0  0  0  0  0  0  0  0  0  0
    4.6740   -4.8322    0.0000 C   0  0  0  0  0  0  0  0  0  0  0  0
    4.8308   -6.3240    0.0000 C   0  0  0  0  0  0  0  0  0  0  0  0
    6.2011   -6.9341    0.0000 C   0  0  0  0  0  0  0  0  0  0  0  0
    7.4146   -6.0524    0.0000 C   0  0  0  0  0  0  0  0  0  0  0  0
    7.2578   -4.5606    0.0000 C   0  0  0  0  0  0  0  0  0  0  0  0
    5.8875   -3.9505    0.0000 C   0  0  0  0  0  0  0  0  0  0  0  0
    3.6836   -0.1729    0.0000 C   0  0  0  0  0  0  0  0  0  0  0  0
    2.3133    0.4372    0.0000 O   0  0  0  0  0  0  0  0  0  0  0  0
    1.4428    3.7644    0.0000 N   0  0  0  0  0  0  0  0  0  0  0  0
  1  2  1  0
  2  3  1  0
  3  4  2  0
  4  5  1  0
  5  6  2  0
  6  7  1  0
  7  8  2  0
  8  9  1  0
  9 10  2  0
 10 11  1  0
 11 12  1  0
 12 13  2  0
 13 14  1  0
 14 15  2  0
 15 16  1  0
 16 17  2  0
 17 18  1  0
 18 19  2  0
 19 20  1  0
 20 21  1  0
 21 22  2  0
 22 23  1  0
 23 24  2  0
 24 25  1  0
 25 26  2  0
 15 27  1  0
 27 28  2  0
  6 29  1  0
 29  3  1  0
 11  7  1  0
 27 12  1  0
 20 16  1  0
 26 21  1  0
M  END
>  <Title>  (905) 
idABIUgen7

$$$$

     RDKit          2D

 28 30  0  0  0  0  0  0  0  0999 V2000
    6.0000    2.5981    0.0000 C   0  0  0  0  0  0  0  0  0  0  0  0
    5.2500    1.2990    0.0000 C   0  0  0  0  0  0  0  0  0  0  0  0
    6.0000    0.0000    0.0000 O   0  0  0  0  0  0  0  0  0  0  0  0
    3.7500    1.2990    0.0000 N   0  0  0  0  0  0  0  0  0  0  0  0
    3.0000    0.0000    0.0000 C   0  0  0  0  0  0  0  0  0  0  0  0
    3.7500   -1.2990    0.0000 O   0  0  0  0  0  0  0  0  0  0  0  0
    1.5000    0.0000    0.0000 C   0  0  0  0  0  0  0  0  0  0  0  0
    0.7500    1.2990    0.0000 C   0  0  0  0  0  0  0  0  0  0  0  0
   -0.7500    1.2990    0.0000 C   0  0  0  0  0  0  0  0  0  0  0  0
   -1.5000    0.0000    0.0000 C   0  0  0  0  0  0  0  0  0  0  0  0
   -3.0000    0.0000    0.0000 C   0  0  0  0  0  0  0  0  0  0  0  0
   -3.8817   -1.2135    0.0000 N   0  0  0  0  0  0  0  0  0  0  0  0
   -5.3083   -0.7500    0.0000 N   0  0  0  0  0  0  0  0  0  0  0  0
   -5.3083    0.7500    0.0000 N   0  0  0  0  0  0  0  0  0  0  0  0
   -3.8817    1.2135    0.0000 N   0  0  0  0  0  0  0  0  0  0  0  0
   -3.4182    2.6401    0.0000 C   0  0  0  0  0  0  0  0  0  0  0  0
   -1.9509    2.9520    0.0000 C   0  0  0  0  0  0  0  0  0  0  0  0
   -1.4874    4.3786    0.0000 C   0  0  0  0  0  0  0  0  0  0  0  0
   -2.4911    5.4933    0.0000 C   0  0  0  0  0  0  0  0  0  0  0  0
   -2.0276    6.9199    0.0000 C   0  0  0  0  0  0  0  0  0  0  0  0
   -3.0313    8.0346    0.0000 O   0  0  0  0  0  0  0  0  0  0  0  0
   -0.5604    7.2317    0.0000 N   0  0  0  0  0  0  0  0  0  0  0  0
   -0.0968    8.6583    0.0000 O   0  0  0  0  0  0  0  0  0  0  0  0
   -3.9583    5.1814    0.0000 C   0  0  0  0  0  0  0  0  0  0  0  0
   -4.4218    3.7548    0.0000 C   0  0  0  0  0  0  0  0  0  0  0  0
   -0.7500   -1.2990    0.0000 C   0  0  0  0  0  0  0  0  0  0  0  0
   -1.5000   -2.5981    0.0000 O   0  0  0  0  0  0  0  0  0  0  0  0
    0.7500   -1.2990    0.0000 N   0  0  0  0  0  0  0  0  0  0  0  0
  1  2  1  0
  2  3  2  0
  2  4  1  0
  4  5  1  0
  5  6  2  0
  5  7  1  0
  7  8  1  0
  8  9  1  0
  9 10  2  0
 10 11  1  0
 11 12  2  0
 12 13  1  0
 13 14  2  0
 14 15  1  0
 15 16  1  0
 16 17  2  0
 17 18  1  0
 18 19  2  0
 19 20  1  0
 20 21  2  0
 20 22  1  0
 22 23  1  0
 19 24  1  0
 24 25  2  0
 10 26  1  0
 26 27  2  0
 26 28  1  0
 28  7  1  0
 15 11  1  0
 25 16  1  0
M  END
>  <Title>  (906) 
idABIVgen7

$$$$

     RDKit          2D

 30 34  0  0  0  0  0  0  0  0999 V2000
    3.0000    0.0000    0.0000 C   0  0  0  0  0  0  0  0  0  0  0  0
    1.5000    0.0000    0.0000 C   0  0  0  0  0  0  0  0  0  0  0  0
    0.7500    1.2990    0.0000 C   0  0  0  0  0  0  0  0  0  0  0  0
   -0.7500    1.2990    0.0000 C   0  0  0  0  0  0  0  0  0  0  0  0
   -1.5000    0.0000    0.0000 C   0  0  0  0  0  0  0  0  0  0  0  0
   -3.0000    0.0000    0.0000 C   0  0  0  0  0  0  0  0  0  0  0  0
   -3.8817   -1.2135    0.0000 N   0  0  0  0  0  0  0  0  0  0  0  0
   -5.3083   -0.7500    0.0000 N   0  0  0  0  0  0  0  0  0  0  0  0
   -5.3083    0.7500    0.0000 N   0  0  0  0  0  0  0  0  0  0  0  0
   -3.8817    1.2135    0.0000 N   0  0  0  0  0  0  0  0  0  0  0  0
   -3.4182    2.6401    0.0000 C   0  0  0  0  0  0  0  0  0  0  0  0
   -4.2998    3.8536    0.0000 C   0  0  0  0  0  0  0  0  0  0  0  0
   -3.4182    5.0672    0.0000 C   0  0  0  0  0  0  0  0  0  0  0  0
   -1.9916    4.6036    0.0000 C   0  0  0  0  0  0  0  0  0  0  0  0
   -0.7780    5.4853    0.0000 C   0  0  0  0  0  0  0  0  0  0  0  0
    0.6485    5.0218    0.0000 C   0  0  0  0  0  0  0  0  0  0  0  0
    1.5302    6.2353    0.0000 N   0  0  0  0  0  0  0  0  0  0  0  0
    0.6485    7.4488    0.0000 N   0  0  0  0  0  0  0  0  0  0  0  0
   -0.7780    6.9853    0.0000 N   0  0  0  0  0  0  0  0  0  0  0  0
   -1.9916    7.8670    0.0000 C   0  0  0  0  0  0  0  0  0  0  0  0
   -3.3619    7.2569    0.0000 C   0  0  0  0  0  0  0  0  0  0  0  0
   -4.5754    8.1386    0.0000 C   0  0  0  0  0  0  0  0  0  0  0  0
   -4.4186    9.6303    0.0000 C   0  0  0  0  0  0  0  0  0  0  0  0
   -3.0483   10.2405    0.0000 C   0  0  0  0  0  0  0  0  0  0  0  0
   -1.8348    9.3588    0.0000 C   0  0  0  0  0  0  0  0  0  0  0  0
   -1.9916    3.1036    0.0000 C   0  0  0  0  0  0  0  0  0  0  0  0
   -0.7780    2.2220    0.0000 O   0  0  0  0  0  0  0  0  0  0  0  0
   -0.7500   -1.2990    0.0000 N   0  0  0  0  0  0  0  0  0  0  0  0
    0.7500   -1.2990    0.0000 C   0  0  0  0  0  0  0  0  0  0  0  0
    1.5000   -2.5981    0.0000 O   0  0  0  0  0  0  0  0  0  0  0  0
  1  2  1  0
  2  3  2  0
  3  4  1  0
  4  5  2  0
  5  6  1  0
  6  7  2  0
  7  8  1  0
  8  9  2  0
  9 10  1  0
 10 11  1  0
 11 12  2  0
 12 13  1  0
 13 14  2  0
 14 15  1  0
 15 16  2  0
 16 17  1  0
 17 18  2  0
 18 19  1  0
 19 20  1  0
 20 21  2  0
 21 22  1  0
 22 23  2  0
 23 24  1  0
 24 25  2  0
 14 26  1  0
 26 27  2  0
  5 28  1  0
 28 29  1  0
 29 30  2  0
 29  2  1  0
 10  6  1  0
 26 11  1  0
 19 15  1  0
 25 20  1  0
M  END
>  <Title>  (907) 
idABIWgen7

$$$$

     RDKit          2D

 23 24  0  0  0  0  0  0  0  0999 V2000
    3.0000    0.0000    0.0000 C   0  0  0  0  0  0  0  0  0  0  0  0
    1.5000    0.0000    0.0000 C   0  0  0  0  0  0  0  0  0  0  0  0
    0.7500   -1.2990    0.0000 C   0  0  0  0  0  0  0  0  0  0  0  0
   -0.7500   -1.2990    0.0000 C   0  0  0  0  0  0  0  0  0  0  0  0
   -1.5000    0.0000    0.0000 C   0  0  0  0  0  0  0  0  0  0  0  0
   -3.0000    0.0000    0.0000 C   0  0  0  0  0  0  0  0  0  0  0  0
   -3.7500   -1.2990    0.0000 O   0  0  0  0  0  0  0  0  0  0  0  0
   -3.7500    1.2990    0.0000 N   0  0  0  0  0  0  0  0  0  0  0  0
   -5.2500    1.2990    0.0000 C   0  0  0  0  0  0  0  0  0  0  0  0
   -6.0000    0.0000    0.0000 O   0  0  0  0  0  0  0  0  0  0  0  0
   -6.0000    2.5981    0.0000 N   0  0  0  0  0  0  0  0  0  0  0  0
   -7.4918    2.7549    0.0000 C   0  0  0  0  0  0  0  0  0  0  0  0
   -7.8037    4.2221    0.0000 C   0  0  0  0  0  0  0  0  0  0  0  0
   -9.1740    4.8322    0.0000 C   0  0  0  0  0  0  0  0  0  0  0  0
  -10.3875    3.9505    0.0000 O   0  0  0  0  0  0  0  0  0  0  0  0
   -9.3308    6.3240    0.0000 N   0  0  0  0  0  0  0  0  0  0  0  0
  -10.7011    6.9341    0.0000 O   0  0  0  0  0  0  0  0  0  0  0  0
   -6.5046    4.9721    0.0000 N   0  0  0  0  0  0  0  0  0  0  0  0
   -5.3899    3.9684    0.0000 C   0  0  0  0  0  0  0  0  0  0  0  0
   -3.9227    4.2803    0.0000 O   0  0  0  0  0  0  0  0  0  0  0  0
   -0.7500    1.2990    0.0000 C   0  0  0  0  0  0  0  0  0  0  0  0
   -1.5000    2.5981    0.0000 O   0  0  0  0  0  0  0  0  0  0  0  0
    0.7500    1.2990    0.0000 N   0  0  0  0  0  0  0  0  0  0  0  0
  1  2  1  0
  2  3  2  0
  3  4  1  0
  4  5  2  0
  5  6  1  0
  6  7  2  0
  6  8  1  0
  8  9  1  0
  9 10  2  0
  9 11  1  0
 11 12  1  0
 12 13  2  0
 13 14  1  0
 14 15  2  0
 14 16  1  0
 16 17  1  0
 13 18  1  0
 18 19  1  0
 19 20  2  0
  5 21  1  0
 21 22  2  0
 21 23  1  0
 23  2  1  0
 19 11  1  0
M  END
>  <Title>  (908) 
idABIXgen7

$$$$

     RDKit          2D

 10 11  0  0  0  0  0  0  0  0999 V2000
   -4.1640    3.2626    0.0000 C   0  0  0  0  0  0  0  0  0  0  0  0
   -3.4140    1.9635    0.0000 O   0  0  0  0  0  0  0  0  0  0  0  0
   -1.9140    1.9635    0.0000 C   0  0  0  0  0  0  0  0  0  0  0  0
   -1.0323    3.1771    0.0000 C   0  0  0  0  0  0  0  0  0  0  0  0
    0.3943    2.7135    0.0000 C   0  0  0  0  0  0  0  0  0  0  0  0
    0.3943    1.2135    0.0000 C   0  0  0  0  0  0  0  0  0  0  0  0
    1.2760    0.0000    0.0000 C   0  0  0  0  0  0  0  0  0  0  0  0
    0.3943   -1.2135    0.0000 C   0  0  0  0  0  0  0  0  0  0  0  0
   -1.0323   -0.7500    0.0000 C   0  0  0  0  0  0  0  0  0  0  0  0
   -1.0323    0.7500    0.0000 C   0  0  0  0  0  0  0  0  0  0  0  0
  1  2  1  0
  2  3  1  0
  3  4  2  0
  4  5  1  0
  5  6  2  0
  6  7  1  0
  7  8  2  0
  8  9  1  0
  9 10  2  0
 10  3  1  0
 10  6  1  0
M  END
>  <Title>  (909) 
idABIYgen7

$$$$

     RDKit          2D

 25 28  0  0  0  0  0  0  0  0999 V2000
    3.7500   -1.2990    0.0000 C   0  0  0  0  0  0  0  0  0  0  0  0
    3.0000    0.0000    0.0000 C   0  0  0  0  0  0  0  0  0  0  0  0
    1.5000    0.0000    0.0000 C   0  0  0  0  0  0  0  0  0  0  0  0
    0.7500   -1.2990    0.0000 C   0  0  0  0  0  0  0  0  0  0  0  0
   -0.7500   -1.2990    0.0000 C   0  0  0  0  0  0  0  0  0  0  0  0
   -1.5000    0.0000    0.0000 C   0  0  0  0  0  0  0  0  0  0  0  0
   -3.0000    0.0000    0.0000 C   0  0  0  0  0  0  0  0  0  0  0  0
   -3.8817   -1.2135    0.0000 C   0  0  0  0  0  0  0  0  0  0  0  0
   -5.3083   -0.7500    0.0000 N   0  0  0  0  0  0  0  0  0  0  0  0
   -5.3083    0.7500    0.0000 N   0  0  0  0  0  0  0  0  0  0  0  0
   -3.8817    1.2135    0.0000 N   0  0  0  0  0  0  0  0  0  0  0  0
   -3.4182    2.6401    0.0000 C   0  0  0  0  0  0  0  0  0  0  0  0
   -1.9509    2.9520    0.0000 C   0  0  0  0  0  0  0  0  0  0  0  0
   -1.4874    4.3786    0.0000 C   0  0  0  0  0  0  0  0  0  0  0  0
   -2.4911    5.4933    0.0000 C   0  0  0  0  0  0  0  0  0  0  0  0
   -2.0276    6.9199    0.0000 C   0  0  0  0  0  0  0  0  0  0  0  0
   -0.5604    7.2317    0.0000 C   0  0  0  0  0  0  0  0  0  0  0  0
   -0.0968    8.6583    0.0000 C   0  0  0  0  0  0  0  0  0  0  0  0
   -1.1005    9.7730    0.0000 C   0  0  0  0  0  0  0  0  0  0  0  0
   -2.5677    9.4612    0.0000 C   0  0  0  0  0  0  0  0  0  0  0  0
   -3.0313    8.0346    0.0000 C   0  0  0  0  0  0  0  0  0  0  0  0
   -3.9583    5.1814    0.0000 C   0  0  0  0  0  0  0  0  0  0  0  0
   -4.4218    3.7548    0.0000 C   0  0  0  0  0  0  0  0  0  0  0  0
   -0.7500    1.2990    0.0000 C   0  0  0  0  0  0  0  0  0  0  0  0
    0.7500    1.2990    0.0000 C   0  0  0  0  0  0  0  0  0  0  0  0
  1  2  1  0
  2  3  1  0
  3  4  2  0
  4  5  1  0
  5  6  2  0
  6  7  1  0
  7  8  2  0
  8  9  1  0
  9 10  2  0
 10 11  1  0
 11 12  1  0
 12 13  2  0
 13 14  1  0
 14 15  2  0
 15 16  1  0
 16 17  2  0
 17 18  1  0
 18 19  2  0
 19 20  1  0
 20 21  2  0
 15 22  1  0
 22 23  2  0
  6 24  1  0
 24 25  2  0
 25  3  1  0
 11  7  1  0
 23 12  1  0
 21 16  1  0
M  END
>  <Title>  (910) 
idABIZgen7

$$$$

     RDKit          2D

 29 29  0  0  0  0  0  0  0  0999 V2000
    8.1986    0.0000    0.0000 C   0  0  0  0  0  0  0  0  0  0  0  0
    6.6986    0.0000    0.0000 C   0  0  0  0  0  0  0  0  0  0  0  0
    6.5306   -1.4906    0.0000 C   0  0  0  0  0  0  0  0  0  0  0  0
    6.0352   -2.9064    0.0000 C   0  0  0  0  0  0  0  0  0  0  0  0
    5.2371   -4.1765    0.0000 C   0  0  0  0  0  0  0  0  0  0  0  0
    4.1765   -5.2371    0.0000 C   0  0  0  0  0  0  0  0  0  0  0  0
    2.9064   -6.0352    0.0000 C   0  0  0  0  0  0  0  0  0  0  0  0
    1.4906   -6.5306    0.0000 C   0  0  0  0  0  0  0  0  0  0  0  0
   -0.0000   -6.6986    0.0000 C   0  0  0  0  0  0  0  0  0  0  0  0
   -1.4906   -6.5306    0.0000 C   0  0  0  0  0  0  0  0  0  0  0  0
   -2.9064   -6.0352    0.0000 C   0  0  0  0  0  0  0  0  0  0  0  0
   -4.1765   -5.2371    0.0000 C   0  0  0  0  0  0  0  0  0  0  0  0
   -5.2371   -4.1765    0.0000 C   0  0  0  0  0  0  0  0  0  0  0  0
   -6.0352   -2.9064    0.0000 C   0  0  0  0  0  0  0  0  0  0  0  0
   -6.5306   -1.4906    0.0000 C   0  0  0  0  0  0  0  0  0  0  0  0
   -6.6986    0.0000    0.0000 C   0  0  0  0  0  0  0  0  0  0  0  0
   -6.5306    1.4906    0.0000 C   0  0  0  0  0  0  0  0  0  0  0  0
   -6.0352    2.9064    0.0000 C   0  0  0  0  0  0  0  0  0  0  0  0
   -5.2371    4.1765    0.0000 C   0  0  0  0  0  0  0  0  0  0  0  0
   -4.1765    5.2371    0.0000 C   0  0  0  0  0  0  0  0  0  0  0  0
   -2.9064    6.0352    0.0000 C   0  0  0  0  0  0  0  0  0  0  0  0
   -1.4906    6.5306    0.0000 C   0  0  0  0  0  0  0  0  0  0  0  0
    0.0000    6.6986    0.0000 C   0  0  0  0  0  0  0  0  0  0  0  0
    1.4906    6.5306    0.0000 C   0  0  0  0  0  0  0  0  0  0  0  0
    2.9064    6.0352    0.0000 C   0  0  0  0  0  0  0  0  0  0  0  0
    4.1765    5.2371    0.0000 C   0  0  0  0  0  0  0  0  0  0  0  0
    5.2371    4.1765    0.0000 C   0  0  0  0  0  0  0  0  0  0  0  0
    6.0352    2.9064    0.0000 C   0  0  0  0  0  0  0  0  0  0  0  0
    6.5306    1.4906    0.0000 C   0  0  0  0  0  0  0  0  0  0  0  0
  1  2  1  0
  2  3  2  0
  3  4  1  0
  4  5  2  0
  5  6  1  0
  6  7  2  0
  7  8  1  0
  8  9  2  0
  9 10  1  0
 10 11  2  0
 11 12  1  0
 12 13  2  0
 13 14  1  0
 14 15  2  0
 15 16  1  0
 16 17  2  0
 17 18  1  0
 18 19  2  0
 19 20  1  0
 20 21  2  0
 21 22  1  0
 22 23  2  0
 23 24  1  0
 24 25  2  0
 25 26  1  0
 26 27  2  0
 27 28  1  0
 28 29  2  0
 29  2  1  0
M  END
>  <Title>  (911) 
idABJAgen7

$$$$

     RDKit          2D

 34 38  0  0  0  0  0  0  0  0999 V2000
    3.0000    0.0000    0.0000 C   0  0  0  0  0  0  0  0  0  0  0  0
    1.5000    0.0000    0.0000 C   0  0  0  0  0  0  0  0  0  0  0  0
    0.7500    1.2990    0.0000 C   0  0  0  0  0  0  0  0  0  0  0  0
   -0.7500    1.2990    0.0000 C   0  0  0  0  0  0  0  0  0  0  0  0
   -1.5000    0.0000    0.0000 C   0  0  0  0  0  0  0  0  0  0  0  0
   -3.0000    0.0000    0.0000 C   0  0  0  0  0  0  0  0  0  0  0  0
   -3.8817   -1.2135    0.0000 C   0  0  0  0  0  0  0  0  0  0  0  0
   -5.3083   -0.7500    0.0000 C   0  0  0  0  0  0  0  0  0  0  0  0
   -5.3083    0.7500    0.0000 N   0  0  0  0  0  0  0  0  0  0  0  0
   -3.8817    1.2135    0.0000 N   0  0  0  0  0  0  0  0  0  0  0  0
   -3.4182    2.6401    0.0000 C   0  0  0  0  0  0  0  0  0  0  0  0
   -1.9509    2.9520    0.0000 C   0  0  0  0  0  0  0  0  0  0  0  0
   -1.4874    4.3786    0.0000 C   0  0  0  0  0  0  0  0  0  0  0  0
   -2.4911    5.4933    0.0000 C   0  0  0  0  0  0  0  0  0  0  0  0
   -2.0276    6.9199    0.0000 N   0  0  0  0  0  0  0  0  0  0  0  0
   -0.5604    7.2317    0.0000 C   0  0  0  0  0  0  0  0  0  0  0  0
    0.4433    6.1170    0.0000 O   0  0  0  0  0  0  0  0  0  0  0  0
   -0.0968    8.6583    0.0000 N   0  0  0  0  0  0  0  0  0  0  0  0
    1.3704    8.9702    0.0000 C   0  0  0  0  0  0  0  0  0  0  0  0
    2.4851    7.9665    0.0000 N   0  0  0  0  0  0  0  0  0  0  0  0
    3.7841    8.7165    0.0000 N   0  0  0  0  0  0  0  0  0  0  0  0
    3.4723   10.1837    0.0000 N   0  0  0  0  0  0  0  0  0  0  0  0
    1.9805   10.3405    0.0000 N   0  0  0  0  0  0  0  0  0  0  0  0
    1.2305   11.6395    0.0000 C   0  0  0  0  0  0  0  0  0  0  0  0
    1.9805   12.9386    0.0000 C   0  0  0  0  0  0  0  0  0  0  0  0
    1.2305   14.2376    0.0000 C   0  0  0  0  0  0  0  0  0  0  0  0
   -0.2695   14.2376    0.0000 C   0  0  0  0  0  0  0  0  0  0  0  0
   -1.0195   12.9386    0.0000 C   0  0  0  0  0  0  0  0  0  0  0  0
   -0.2695   11.6395    0.0000 C   0  0  0  0  0  0  0  0  0  0  0  0
   -3.9583    5.1814    0.0000 C   0  0  0  0  0  0  0  0  0  0  0  0
   -4.4218    3.7548    0.0000 C   0  0  0  0  0  0  0  0  0  0  0  0
   -0.7500   -1.2990    0.0000 C   0  0  0  0  0  0  0  0  0  0  0  0
   -1.5000   -2.5981    0.0000 O   0  0  0  0  0  0  0  0  0  0  0  0
    0.7500   -1.2990    0.0000 N   0  0  0  0  0  0  0  0  0  0  0  0
  1  2  1  0
  2  3  2  0
  3  4  1  0
  4  5  2  0
  5  6  1  0
  6  7  2  0
  7  8  1  0
  8  9  2  0
  9 10  1  0
 10 11  1  0
 11 12  2  0
 12 13  1  0
 13 14  2  0
 14 15  1  0
 15 16  1  0
 16 17  2  0
 16 18  1  0
 18 19  1  0
 19 20  2  0
 20 21  1  0
 21 22  2  0
 22 23  1  0
 23 24  1  0
 24 25  2  0
 25 26  1  0
 26 27  2  0
 27 28  1  0
 28 29  2  0
 14 30  1  0
 30 31  2  0
  5 32  1  0
 32 33  2  0
 32 34  1  0
 34  2  1  0
 10  6  1  0
 31 11  1  0
 23 19  1  0
 29 24  1  0
M  END
>  <Title>  (912) 
idABJBgen7

$$$$

     RDKit          2D

 43 50  0  0  0  0  0  0  0  0999 V2000
    9.0643   -2.7468    0.0000 C   0  0  0  0  0  0  0  0  0  0  0  0
    7.7338   -2.0541    0.0000 C   0  0  0  0  0  0  0  0  0  0  0  0
    6.3914   -2.7234    0.0000 C   0  0  0  0  0  0  0  0  0  0  0  0
    5.3400   -1.6536    0.0000 C   0  0  0  0  0  0  0  0  0  0  0  0
    6.0326   -0.3230    0.0000 C   0  0  0  0  0  0  0  0  0  0  0  0
    5.3633    1.0194    0.0000 C   0  0  0  0  0  0  0  0  0  0  0  0
    6.0559    2.3499    0.0000 N   0  0  0  0  0  0  0  0  0  0  0  0
    5.0046    3.4197    0.0000 N   0  0  0  0  0  0  0  0  0  0  0  0
    3.6622    2.7505    0.0000 N   0  0  0  0  0  0  0  0  0  0  0  0
    3.8839    1.2669    0.0000 N   0  0  0  0  0  0  0  0  0  0  0  0
    2.8140    0.2156    0.0000 C   0  0  0  0  0  0  0  0  0  0  0  0
    1.3346    0.4631    0.0000 C   0  0  0  0  0  0  0  0  0  0  0  0
    0.6420   -0.8674    0.0000 C   0  0  0  0  0  0  0  0  0  0  0  0
    1.6933   -1.9373    0.0000 C   0  0  0  0  0  0  0  0  0  0  0  0
    1.4458   -3.4167    0.0000 C   0  0  0  0  0  0  0  0  0  0  0  0
    2.4971   -4.4866    0.0000 N   0  0  0  0  0  0  0  0  0  0  0  0
    1.8045   -5.8171    0.0000 N   0  0  0  0  0  0  0  0  0  0  0  0
    0.3251   -5.5695    0.0000 N   0  0  0  0  0  0  0  0  0  0  0  0
    0.1034   -4.0860    0.0000 N   0  0  0  0  0  0  0  0  0  0  0  0
   -1.2272   -3.3934    0.0000 C   0  0  0  0  0  0  0  0  0  0  0  0
   -1.0964   -1.8991    0.0000 C   0  0  0  0  0  0  0  0  0  0  0  0
   -2.0606   -0.7500    0.0000 C   0  0  0  0  0  0  0  0  0  0  0  0
   -3.5549   -0.6193    0.0000 C   0  0  0  0  0  0  0  0  0  0  0  0
   -4.7040   -1.5834    0.0000 C   0  0  0  0  0  0  0  0  0  0  0  0
   -4.8347   -3.0777    0.0000 C   0  0  0  0  0  0  0  0  0  0  0  0
   -3.8705   -4.2268    0.0000 C   0  0  0  0  0  0  0  0  0  0  0  0
   -5.0992   -5.0872    0.0000 C   0  0  0  0  0  0  0  0  0  0  0  0
   -5.4875   -6.5361    0.0000 C   0  0  0  0  0  0  0  0  0  0  0  0
   -4.8535   -7.8955    0.0000 C   0  0  0  0  0  0  0  0  0  0  0  0
   -5.9142   -8.9562    0.0000 C   0  0  0  0  0  0  0  0  0  0  0  0
   -5.5260  -10.4051    0.0000 C   0  0  0  0  0  0  0  0  0  0  0  0
   -6.5866  -11.4657    0.0000 C   0  0  0  0  0  0  0  0  0  0  0  0
   -8.0355  -11.0775    0.0000 C   0  0  0  0  0  0  0  0  0  0  0  0
   -8.4238   -9.6286    0.0000 C   0  0  0  0  0  0  0  0  0  0  0  0
   -7.3631   -8.5680    0.0000 C   0  0  0  0  0  0  0  0  0  0  0  0
   -3.4941   -8.5294    0.0000 C   0  0  0  0  0  0  0  0  0  0  0  0
   -2.0452   -8.1412    0.0000 N   0  0  0  0  0  0  0  0  0  0  0  0
   -1.1848   -6.9125    0.0000 N   0  0  0  0  0  0  0  0  0  0  0  0
   -1.3156   -5.4182    0.0000 N   0  0  0  0  0  0  0  0  0  0  0  0
   -2.3762   -4.3575    0.0000 N   0  0  0  0  0  0  0  0  0  0  0  0
    3.0357   -1.2680    0.0000 C   0  0  0  0  0  0  0  0  0  0  0  0
    4.3662   -1.9606    0.0000 N   0  0  0  0  0  0  0  0  0  0  0  0
    7.5120   -0.5706    0.0000 N   0  0  0  0  0  0  0  0  0  0  0  0
  1  2  1  0
  2  3  2  0
  3  4  1  0
  4  5  2  0
  5  6  1  0
  6  7  2  0
  7  8  1  0
  8  9  2  0
  9 10  1  0
 10 11  1  0
 11 12  2  0
 12 13  1  0
 13 14  2  0
 14 15  1  0
 15 16  2  0
 16 17  1  0
 17 18  2  0
 18 19  1  0
 19 20  1  0
 20 21  2  0
 21 22  1  0
 22 23  2  0
 23 24  1  0
 24 25  2  0
 25 26  1  0
 26 27  2  0
 27 28  1  0
 28 29  2  0
 29 30  1  0
 30 31  2  0
 31 32  1  0
 32 33  2  0
 33 34  1  0
 34 35  2  0
 29 36  1  0
 36 37  2  0
 37 38  1  0
 38 39  2  0
 39 40  1  0
 14 41  1  0
 41 42  2  0
  5 43  1  0
 43  2  1  0
 10  6  1  0
 41 11  1  0
 19 15  1  0
 40 20  1  0
 36 23  1  0
 40 26  1  0
 35 30  1  0
M  END
>  <Title>  (913) 
idABJCgen7

$$$$

     RDKit          2D

 31 35  0  0  0  0  0  0  0  0999 V2000
   -4.0035    6.0784    0.0000 C   0  0  0  0  0  0  0  0  0  0  0  0
   -2.5991    5.5513    0.0000 C   0  0  0  0  0  0  0  0  0  0  0  0
   -1.4405    6.5040    0.0000 C   0  0  0  0  0  0  0  0  0  0  0  0
   -0.0362    5.9769    0.0000 C   0  0  0  0  0  0  0  0  0  0  0  0
    0.2096    4.4972    0.0000 C   0  0  0  0  0  0  0  0  0  0  0  0
    1.6139    3.9701    0.0000 N   0  0  0  0  0  0  0  0  0  0  0  0
    2.8658    4.7965    0.0000 N   0  0  0  0  0  0  0  0  0  0  0  0
    4.0385    3.8613    0.0000 N   0  0  0  0  0  0  0  0  0  0  0  0
    3.5115    2.4569    0.0000 N   0  0  0  0  0  0  0  0  0  0  0  0
    2.0130    2.5242    0.0000 C   0  0  0  0  0  0  0  0  0  0  0  0
    1.0777    1.3515    0.0000 N   0  0  0  0  0  0  0  0  0  0  0  0
    1.7286    0.0000    0.0000 C   0  0  0  0  0  0  0  0  0  0  0  0
    1.0777   -1.3515    0.0000 C   0  0  0  0  0  0  0  0  0  0  0  0
   -0.3846   -1.6852    0.0000 C   0  0  0  0  0  0  0  0  0  0  0  0
   -0.7184   -3.1476    0.0000 N   0  0  0  0  0  0  0  0  0  0  0  0
    0.3812   -4.1679    0.0000 C   0  0  0  0  0  0  0  0  0  0  0  0
    1.8529   -3.8780    0.0000 N   0  0  0  0  0  0  0  0  0  0  0  0
    2.5834   -5.1881    0.0000 N   0  0  0  0  0  0  0  0  0  0  0  0
    1.5631   -6.2877    0.0000 N   0  0  0  0  0  0  0  0  0  0  0  0
    0.2021   -5.6572    0.0000 N   0  0  0  0  0  0  0  0  0  0  0  0
   -1.1081   -6.3876    0.0000 C   0  0  0  0  0  0  0  0  0  0  0  0
   -2.3957   -5.6183    0.0000 C   0  0  0  0  0  0  0  0  0  0  0  0
   -3.7058   -6.3488    0.0000 C   0  0  0  0  0  0  0  0  0  0  0  0
   -3.7283   -7.8486    0.0000 C   0  0  0  0  0  0  0  0  0  0  0  0
   -2.4406   -8.6180    0.0000 C   0  0  0  0  0  0  0  0  0  0  0  0
   -1.1305   -7.8875    0.0000 C   0  0  0  0  0  0  0  0  0  0  0  0
   -1.5574   -0.7500    0.0000 N   0  0  0  0  0  0  0  0  0  0  0  0
   -1.5574    0.7500    0.0000 N   0  0  0  0  0  0  0  0  0  0  0  0
   -0.3846    1.6852    0.0000 N   0  0  0  0  0  0  0  0  0  0  0  0
   -0.9491    3.5445    0.0000 N   0  0  0  0  0  0  0  0  0  0  0  0
   -2.3534    4.0716    0.0000 N   0  0  0  0  0  0  0  0  0  0  0  0
  1  2  1  0
  2  3  2  0
  3  4  1  0
  4  5  2  0
  5  6  1  0
  6  7  1  0
  7  8  2  0
  8  9  1  0
  9 10  2  0
 10 11  1  0
 11 12  1  0
 12 13  2  0
 13 14  1  0
 14 15  1  0
 15 16  1  0
 16 17  2  0
 17 18  1  0
 18 19  2  0
 19 20  1  0
 20 21  1  0
 21 22  2  0
 22 23  1  0
 23 24  2  0
 24 25  1  0
 25 26  2  0
 14 27  2  0
 27 28  1  0
 28 29  2  0
  5 30  1  0
 30 31  2  0
 31  2  1  0
 10  6  1  0
 29 11  1  0
 20 16  1  0
 26 21  1  0
M  END
>  <Title>  (914) 
idABJDgen7

$$$$

     RDKit          2D

 15 15  0  0  0  0  0  0  0  0999 V2000
    5.1478   -1.2990    0.0000 C   0  0  0  0  0  0  0  0  0  0  0  0
    4.3978    0.0000    0.0000 C   0  0  0  0  0  0  0  0  0  0  0  0
    2.8978    0.0000    0.0000 C   0  0  0  0  0  0  0  0  0  0  0  0
    2.5095   -1.4489    0.0000 C   0  0  0  0  0  0  0  0  0  0  0  0
    1.4489   -2.5095    0.0000 C   0  0  0  0  0  0  0  0  0  0  0  0
   -0.0000   -2.8978    0.0000 C   0  0  0  0  0  0  0  0  0  0  0  0
   -1.4489   -2.5095    0.0000 C   0  0  0  0  0  0  0  0  0  0  0  0
   -2.5095   -1.4489    0.0000 C   0  0  0  0  0  0  0  0  0  0  0  0
   -2.8978    0.0000    0.0000 C   0  0  0  0  0  0  0  0  0  0  0  0
   -2.5095    1.4489    0.0000 C   0  0  0  0  0  0  0  0  0  0  0  0
   -1.4489    2.5095    0.0000 C   0  0  0  0  0  0  0  0  0  0  0  0
    0.0000    2.8978    0.0000 C   0  0  0  0  0  0  0  0  0  0  0  0
    1.4489    2.5095    0.0000 C   0  0  0  0  0  0  0  0  0  0  0  0
    2.5095    1.4489    0.0000 C   0  0  0  0  0  0  0  0  0  0  0  0
    3.8086    2.1989    0.0000 C   0  0  0  0  0  0  0  0  0  0  0  0
  1  2  1  0
  2  3  1  0
  3  4  2  0
  4  5  1  0
  5  6  2  0
  6  7  1  0
  7  8  2  0
  8  9  1  0
  9 10  2  0
 10 11  1  0
 11 12  2  0
 12 13  1  0
 13 14  2  0
 14 15  1  0
 14  3  1  0
M  END
>  <Title>  (915) 
idABJEgen7

$$$$

     RDKit          2D

 51 58  0  0  0  0  0  0  0  0999 V2000
    3.0000    0.0000    0.0000 C   0  0  0  0  0  0  0  0  0  0  0  0
    1.5000    0.0000    0.0000 C   0  0  0  0  0  0  0  0  0  0  0  0
    0.7500   -1.2990    0.0000 C   0  0  0  0  0  0  0  0  0  0  0  0
   -0.7500   -1.2990    0.0000 C   0  0  0  0  0  0  0  0  0  0  0  0
   -1.5000    0.0000    0.0000 C   0  0  0  0  0  0  0  0  0  0  0  0
   -3.0000    0.0000    0.0000 C   0  0  0  0  0  0  0  0  0  0  0  0
   -3.8817   -1.2135    0.0000 N   0  0  0  0  0  0  0  0  0  0  0  0
   -5.3083   -0.7500    0.0000 N   0  0  0  0  0  0  0  0  0  0  0  0
   -5.3083    0.7500    0.0000 N   0  0  0  0  0  0  0  0  0  0  0  0
   -3.8817    1.2135    0.0000 N   0  0  0  0  0  0  0  0  0  0  0  0
   -3.4182    2.6401    0.0000 C   0  0  0  0  0  0  0  0  0  0  0  0
   -1.9509    2.9520    0.0000 C   0  0  0  0  0  0  0  0  0  0  0  0
   -1.4874    4.3786    0.0000 C   0  0  0  0  0  0  0  0  0  0  0  0
   -2.4911    5.4933    0.0000 C   0  0  0  0  0  0  0  0  0  0  0  0
   -2.0276    6.9199    0.0000 C   0  0  0  0  0  0  0  0  0  0  0  0
   -0.5604    7.2317    0.0000 C   0  0  0  0  0  0  0  0  0  0  0  0
   -0.0968    8.6583    0.0000 C   0  0  0  0  0  0  0  0  0  0  0  0
   -1.1005    9.7730    0.0000 C   0  0  0  0  0  0  0  0  0  0  0  0
   -2.5677    9.4612    0.0000 C   0  0  0  0  0  0  0  0  0  0  0  0
   -3.0313    8.0346    0.0000 C   0  0  0  0  0  0  0  0  0  0  0  0
   -3.9583    5.1814    0.0000 C   0  0  0  0  0  0  0  0  0  0  0  0
   -4.4218    3.7548    0.0000 C   0  0  0  0  0  0  0  0  0  0  0  0
   -5.8891    3.4430    0.0000 C   0  0  0  0  0  0  0  0  0  0  0  0
   -6.4992    2.0726    0.0000 N   0  0  0  0  0  0  0  0  0  0  0  0
   -7.9910    2.2294    0.0000 C   0  0  0  0  0  0  0  0  0  0  0  0
   -8.3028    3.6967    0.0000 N   0  0  0  0  0  0  0  0  0  0  0  0
   -7.0038    4.4467    0.0000 N   0  0  0  0  0  0  0  0  0  0  0  0
   -6.8470    5.9384    0.0000 C   0  0  0  0  0  0  0  0  0  0  0  0
   -5.4767    6.5485    0.0000 C   0  0  0  0  0  0  0  0  0  0  0  0
   -5.3199    8.0403    0.0000 C   0  0  0  0  0  0  0  0  0  0  0  0
   -6.5334    8.9220    0.0000 C   0  0  0  0  0  0  0  0  0  0  0  0
   -6.3766   10.4138    0.0000 C   0  0  0  0  0  0  0  0  0  0  0  0
   -5.0063   11.0239    0.0000 O   0  0  0  0  0  0  0  0  0  0  0  0
   -7.5901   11.2955    0.0000 N   0  0  0  0  0  0  0  0  0  0  0  0
   -7.4333   12.7872    0.0000 C   0  0  0  0  0  0  0  0  0  0  0  0
   -6.1343   13.5372    0.0000 N   0  0  0  0  0  0  0  0  0  0  0  0
   -6.4462   15.0045    0.0000 N   0  0  0  0  0  0  0  0  0  0  0  0
   -7.9380   15.1613    0.0000 N   0  0  0  0  0  0  0  0  0  0  0  0
   -8.5481   13.7909    0.0000 N   0  0  0  0  0  0  0  0  0  0  0  0
  -10.0153   13.4791    0.0000 C   0  0  0  0  0  0  0  0  0  0  0  0
  -10.4788   12.0525    0.0000 C   0  0  0  0  0  0  0  0  0  0  0  0
  -11.9460   11.7406    0.0000 C   0  0  0  0  0  0  0  0  0  0  0  0
  -12.9497   12.8553    0.0000 C   0  0  0  0  0  0  0  0  0  0  0  0
  -12.4862   14.2819    0.0000 C   0  0  0  0  0  0  0  0  0  0  0  0
  -11.0190   14.5938    0.0000 C   0  0  0  0  0  0  0  0  0  0  0  0
   -7.9037    8.3119    0.0000 C   0  0  0  0  0  0  0  0  0  0  0  0
   -9.1173    9.1936    0.0000 O   0  0  0  0  0  0  0  0  0  0  0  0
   -8.0605    6.8201    0.0000 N   0  0  0  0  0  0  0  0  0  0  0  0
   -0.7500    1.2990    0.0000 C   0  0  0  0  0  0  0  0  0  0  0  0
    0.7500    1.2990    0.0000 C   0  0  0  0  0  0  0  0  0  0  0  0
    1.5000    2.5981    0.0000 C   0  0  0  0  0  0  0  0  0  0  0  0
  1  2  1  0
  2  3  2  0
  3  4  1  0
  4  5  2  0
  5  6  1  0
  6  7  2  0
  7  8  1  0
  8  9  2  0
  9 10  1  0
 10 11  1  0
 11 12  2  0
 12 13  1  0
 13 14  2  0
 14 15  1  0
 15 16  2  0
 16 17  1  0
 17 18  2  0
 18 19  1  0
 19 20  2  0
 14 21  1  0
 21 22  2  0
 22 23  1  0
 23 24  2  0
 24 25  1  0
 25 26  2  0
 26 27  1  0
 27 28  1  0
 28 29  2  0
 29 30  1  0
 30 31  2  0
 31 32  1  0
 32 33  2  0
 32 34  1  0
 34 35  1  0
 35 36  2  0
 36 37  1  0
 37 38  2  0
 38 39  1  0
 39 40  1  0
 40 41  2  0
 41 42  1  0
 42 43  2  0
 43 44  1  0
 44 45  2  0
 31 46  1  0
 46 47  2  0
 46 48  1  0
  5 49  1  0
 49 50  2  0
 50 51  1  0
 50  2  1  0
 10  6  1  0
 22 11  1  0
 27 23  1  0
 48 28  1  0
 20 15  1  0
 39 35  1  0
 45 40  1  0
M  END
>  <Title>  (916) 
idABJFgen7

$$$$

     RDKit          2D

 27 29  0  0  0  0  0  0  0  0999 V2000
    3.7500   -1.2990    0.0000 C   0  0  0  0  0  0  0  0  0  0  0  0
    3.0000    0.0000    0.0000 O   0  0  0  0  0  0  0  0  0  0  0  0
    1.5000    0.0000    0.0000 C   0  0  0  0  0  0  0  0  0  0  0  0
    0.7500   -1.2990    0.0000 C   0  0  0  0  0  0  0  0  0  0  0  0
   -0.7500   -1.2990    0.0000 C   0  0  0  0  0  0  0  0  0  0  0  0
   -1.5000    0.0000    0.0000 C   0  0  0  0  0  0  0  0  0  0  0  0
   -3.0000    0.0000    0.0000 C   0  0  0  0  0  0  0  0  0  0  0  0
   -3.7500   -1.2990    0.0000 O   0  0  0  0  0  0  0  0  0  0  0  0
   -3.7500    1.2990    0.0000 N   0  0  0  0  0  0  0  0  0  0  0  0
   -5.2500    1.2990    0.0000 C   0  0  0  0  0  0  0  0  0  0  0  0
   -6.1317    0.0855    0.0000 N   0  0  0  0  0  0  0  0  0  0  0  0
   -7.5583    0.5490    0.0000 N   0  0  0  0  0  0  0  0  0  0  0  0
   -7.5583    2.0490    0.0000 N   0  0  0  0  0  0  0  0  0  0  0  0
   -6.1317    2.5126    0.0000 N   0  0  0  0  0  0  0  0  0  0  0  0
   -5.6682    3.9391    0.0000 C   0  0  0  0  0  0  0  0  0  0  0  0
   -4.2009    4.2510    0.0000 C   0  0  0  0  0  0  0  0  0  0  0  0
   -3.7374    5.6776    0.0000 C   0  0  0  0  0  0  0  0  0  0  0  0
   -4.7411    6.7923    0.0000 C   0  0  0  0  0  0  0  0  0  0  0  0
   -4.2776    8.2189    0.0000 C   0  0  0  0  0  0  0  0  0  0  0  0
   -5.2813    9.3336    0.0000 O   0  0  0  0  0  0  0  0  0  0  0  0
   -2.8104    8.5308    0.0000 N   0  0  0  0  0  0  0  0  0  0  0  0
   -2.3468    9.9574    0.0000 O   0  0  0  0  0  0  0  0  0  0  0  0
   -6.2083    6.4805    0.0000 C   0  0  0  0  0  0  0  0  0  0  0  0
   -6.6718    5.0539    0.0000 C   0  0  0  0  0  0  0  0  0  0  0  0
   -0.7500    1.2990    0.0000 C   0  0  0  0  0  0  0  0  0  0  0  0
   -1.5000    2.5981    0.0000 O   0  0  0  0  0  0  0  0  0  0  0  0
    0.7500    1.2990    0.0000 N   0  0  0  0  0  0  0  0  0  0  0  0
  1  2  1  0
  2  3  1  0
  3  4  2  0
  4  5  1  0
  5  6  2  0
  6  7  1  0
  7  8  2  0
  7  9  1  0
  9 10  1  0
 10 11  2  0
 11 12  1  0
 12 13  2  0
 13 14  1  0
 14 15  1  0
 15 16  2  0
 16 17  1  0
 17 18  2  0
 18 19  1  0
 19 20  2  0
 19 21  1  0
 21 22  1  0
 18 23  1  0
 23 24  1  0
  6 25  1  0
 25 26  2  0
 25 27  1  0
 27  3  1  0
 14 10  1  0
 24 15  1  0
M  END
>  <Title>  (917) 
idABJGgen7

$$$$

     RDKit          2D

 10 10  0  0  0  0  0  0  0  0999 V2000
    3.6929    0.0000    0.0000 O   0  0  0  0  0  0  0  0  0  0  0  0
    2.1929    0.0000    0.0000 C   0  0  0  0  0  0  0  0  0  0  0  0
    1.6798    1.4095    0.0000 C   0  0  0  0  0  0  0  0  0  0  0  0
    0.3808    2.1595    0.0000 C   0  0  0  0  0  0  0  0  0  0  0  0
   -1.0964    1.8991    0.0000 C   0  0  0  0  0  0  0  0  0  0  0  0
   -2.0606    0.7500    0.0000 C   0  0  0  0  0  0  0  0  0  0  0  0
   -2.0606   -0.7500    0.0000 C   0  0  0  0  0  0  0  0  0  0  0  0
   -1.0964   -1.8991    0.0000 C   0  0  0  0  0  0  0  0  0  0  0  0
    0.3808   -2.1595    0.0000 C   0  0  0  0  0  0  0  0  0  0  0  0
    1.6798   -1.4095    0.0000 C   0  0  0  0  0  0  0  0  0  0  0  0
  1  2  1  0
  2  3  2  0
  3  4  1  0
  4  5  2  0
  5  6  1  0
  6  7  2  0
  7  8  1  0
  8  9  2  0
  9 10  1  0
 10  2  1  0
M  END
>  <Title>  (918) 
idABJHgen7

$$$$

     RDKit          2D

 14 15  0  0  0  0  0  0  0  0999 V2000
    2.8449    6.6264    0.0000 C   0  0  0  0  0  0  0  0  0  0  0  0
    1.4115    6.1843    0.0000 O   0  0  0  0  0  0  0  0  0  0  0  0
    1.0777    4.7219    0.0000 C   0  0  0  0  0  0  0  0  0  0  0  0
    2.2505    3.7867    0.0000 C   0  0  0  0  0  0  0  0  0  0  0  0
    2.2505    2.2867    0.0000 C   0  0  0  0  0  0  0  0  0  0  0  0
    1.0777    1.3515    0.0000 C   0  0  0  0  0  0  0  0  0  0  0  0
    1.7286    0.0000    0.0000 C   0  0  0  0  0  0  0  0  0  0  0  0
    1.0777   -1.3515    0.0000 C   0  0  0  0  0  0  0  0  0  0  0  0
   -0.3846   -1.6852    0.0000 C   0  0  0  0  0  0  0  0  0  0  0  0
   -1.5574   -0.7500    0.0000 C   0  0  0  0  0  0  0  0  0  0  0  0
   -1.5574    0.7500    0.0000 C   0  0  0  0  0  0  0  0  0  0  0  0
   -0.3846    1.6852    0.0000 C   0  0  0  0  0  0  0  0  0  0  0  0
   -1.0355    3.0367    0.0000 C   0  0  0  0  0  0  0  0  0  0  0  0
   -0.3846    4.3881    0.0000 N   0  0  0  0  0  0  0  0  0  0  0  0
  1  2  1  0
  2  3  1  0
  3  4  2  0
  4  5  1  0
  5  6  2  0
  6  7  1  0
  7  8  2  0
  8  9  1  0
  9 10  2  0
 10 11  1  0
 11 12  2  0
 12 13  1  0
 13 14  2  0
 14  3  1  0
 12  6  1  0
M  END
>  <Title>  (919) 
idABJIgen7

$$$$

     RDKit          2D

 19 19  0  0  0  0  0  0  0  0999 V2000
    5.8191    0.0000    0.0000 C   0  0  0  0  0  0  0  0  0  0  0  0
    4.3191    0.0000    0.0000 C   0  0  0  0  0  0  0  0  0  0  0  0
    4.0586   -1.4772    0.0000 C   0  0  0  0  0  0  0  0  0  0  0  0
    3.3086   -2.7762    0.0000 C   0  0  0  0  0  0  0  0  0  0  0  0
    2.1595   -3.7404    0.0000 C   0  0  0  0  0  0  0  0  0  0  0  0
    0.7500   -4.2535    0.0000 C   0  0  0  0  0  0  0  0  0  0  0  0
   -0.7500   -4.2535    0.0000 C   0  0  0  0  0  0  0  0  0  0  0  0
   -2.1595   -3.7404    0.0000 C   0  0  0  0  0  0  0  0  0  0  0  0
   -3.3086   -2.7762    0.0000 C   0  0  0  0  0  0  0  0  0  0  0  0
   -4.0586   -1.4772    0.0000 C   0  0  0  0  0  0  0  0  0  0  0  0
   -4.3191    0.0000    0.0000 C   0  0  0  0  0  0  0  0  0  0  0  0
   -4.0586    1.4772    0.0000 C   0  0  0  0  0  0  0  0  0  0  0  0
   -3.3086    2.7762    0.0000 C   0  0  0  0  0  0  0  0  0  0  0  0
   -2.1595    3.7404    0.0000 C   0  0  0  0  0  0  0  0  0  0  0  0
   -0.7500    4.2535    0.0000 C   0  0  0  0  0  0  0  0  0  0  0  0
    0.7500    4.2535    0.0000 C   0  0  0  0  0  0  0  0  0  0  0  0
    2.1595    3.7404    0.0000 C   0  0  0  0  0  0  0  0  0  0  0  0
    3.3086    2.7762    0.0000 C   0  0  0  0  0  0  0  0  0  0  0  0
    4.0586    1.4772    0.0000 C   0  0  0  0  0  0  0  0  0  0  0  0
  1  2  1  0
  2  3  2  0
  3  4  1  0
  4  5  2  0
  5  6  1  0
  6  7  2  0
  7  8  1  0
  8  9  2  0
  9 10  1  0
 10 11  2  0
 11 12  1  0
 12 13  2  0
 13 14  1  0
 14 15  2  0
 15 16  1  0
 16 17  2  0
 17 18  1  0
 18 19  2  0
 19  2  1  0
M  END
>  <Title>  (920) 
idABJJgen7

$$$$

     RDKit          2D

 33 37  0  0  0  0  0  0  0  0999 V2000
    3.0000    0.0000    0.0000 C   0  0  0  0  0  0  0  0  0  0  0  0
    1.5000    0.0000    0.0000 C   0  0  0  0  0  0  0  0  0  0  0  0
    0.7500   -1.2990    0.0000 C   0  0  0  0  0  0  0  0  0  0  0  0
   -0.7500   -1.2990    0.0000 C   0  0  0  0  0  0  0  0  0  0  0  0
   -1.5000    0.0000    0.0000 C   0  0  0  0  0  0  0  0  0  0  0  0
   -3.0000    0.0000    0.0000 C   0  0  0  0  0  0  0  0  0  0  0  0
   -3.7500   -1.2990    0.0000 O   0  0  0  0  0  0  0  0  0  0  0  0
   -3.7500    1.2990    0.0000 N   0  0  0  0  0  0  0  0  0  0  0  0
   -5.2500    1.2990    0.0000 C   0  0  0  0  0  0  0  0  0  0  0  0
   -6.1317    0.0855    0.0000 N   0  0  0  0  0  0  0  0  0  0  0  0
   -7.5583    0.5490    0.0000 N   0  0  0  0  0  0  0  0  0  0  0  0
   -7.5583    2.0490    0.0000 N   0  0  0  0  0  0  0  0  0  0  0  0
   -6.1317    2.5126    0.0000 N   0  0  0  0  0  0  0  0  0  0  0  0
   -5.6682    3.9391    0.0000 C   0  0  0  0  0  0  0  0  0  0  0  0
   -4.2009    4.2510    0.0000 C   0  0  0  0  0  0  0  0  0  0  0  0
   -3.7374    5.6776    0.0000 C   0  0  0  0  0  0  0  0  0  0  0  0
   -4.7411    6.7923    0.0000 C   0  0  0  0  0  0  0  0  0  0  0  0
   -4.2776    8.2189    0.0000 C   0  0  0  0  0  0  0  0  0  0  0  0
   -2.8104    8.5308    0.0000 C   0  0  0  0  0  0  0  0  0  0  0  0
   -2.3468    9.9574    0.0000 C   0  0  0  0  0  0  0  0  0  0  0  0
   -3.3505   11.0721    0.0000 C   0  0  0  0  0  0  0  0  0  0  0  0
   -2.8870   12.4987    0.0000 C   0  0  0  0  0  0  0  0  0  0  0  0
   -1.4198   12.8105    0.0000 C   0  0  0  0  0  0  0  0  0  0  0  0
   -0.9563   14.2371    0.0000 C   0  0  0  0  0  0  0  0  0  0  0  0
   -1.9599   15.3518    0.0000 C   0  0  0  0  0  0  0  0  0  0  0  0
   -3.4272   15.0400    0.0000 C   0  0  0  0  0  0  0  0  0  0  0  0
   -3.8907   13.6134    0.0000 C   0  0  0  0  0  0  0  0  0  0  0  0
   -4.8177   10.7602    0.0000 C   0  0  0  0  0  0  0  0  0  0  0  0
   -5.2813    9.3336    0.0000 C   0  0  0  0  0  0  0  0  0  0  0  0
   -6.2083    6.4805    0.0000 C   0  0  0  0  0  0  0  0  0  0  0  0
   -6.6718    5.0539    0.0000 C   0  0  0  0  0  0  0  0  0  0  0  0
   -0.7500    1.2990    0.0000 C   0  0  0  0  0  0  0  0  0  0  0  0
    0.7500    1.2990    0.0000 C   0  0  0  0  0  0  0  0  0  0  0  0
  1  2  1  0
  2  3  2  0
  3  4  1  0
  4  5  2  0
  5  6  1  0
  6  7  2  0
  6  8  1  0
  8  9  1  0
  9 10  2  0
 10 11  1  0
 11 12  2  0
 12 13  1  0
 13 14  1  0
 14 15  2  0
 15 16  1  0
 16 17  2  0
 17 18  1  0
 18 19  2  0
 19 20  1  0
 20 21  2  0
 21 22  1  0
 22 23  2  0
 23 24  1  0
 24 25  2  0
 25 26  1  0
 26 27  2  0
 21 28  1  0
 28 29  2  0
 17 30  1  0
 30 31  1  0
  5 32  1  0
 32 33  2  0
 33  2  1  0
 13  9  1  0
 31 14  1  0
 29 18  1  0
 27 22  1  0
M  END
>  <Title>  (921) 
idABJKgen7

$$$$

     RDKit          2D

 12 13  0  0  0  0  0  0  0  0999 V2000
   -0.7942    6.6482    0.0000 O   0  0  0  0  0  0  0  0  0  0  0  0
   -1.7979    5.5335    0.0000 C   0  0  0  0  0  0  0  0  0  0  0  0
   -1.3344    4.1069    0.0000 C   0  0  0  0  0  0  0  0  0  0  0  0
    0.1520    3.9056    0.0000 C   0  0  0  0  0  0  0  0  0  0  0  0
    0.9214    2.6179    0.0000 C   0  0  0  0  0  0  0  0  0  0  0  0
    0.3943    1.2135    0.0000 C   0  0  0  0  0  0  0  0  0  0  0  0
    1.2760    0.0000    0.0000 C   0  0  0  0  0  0  0  0  0  0  0  0
    0.3943   -1.2135    0.0000 C   0  0  0  0  0  0  0  0  0  0  0  0
   -1.0323   -0.7500    0.0000 C   0  0  0  0  0  0  0  0  0  0  0  0
   -1.0323    0.7500    0.0000 C   0  0  0  0  0  0  0  0  0  0  0  0
   -2.2841    1.5763    0.0000 C   0  0  0  0  0  0  0  0  0  0  0  0
   -2.4186    3.0703    0.0000 C   0  0  0  0  0  0  0  0  0  0  0  0
  1  2  1  0
  2  3  1  0
  3  4  2  0
  4  5  1  0
  5  6  2  0
  6  7  1  0
  7  8  2  0
  8  9  1  0
  9 10  2  0
 10 11  1  0
 11 12  1  0
 12  3  1  0
 10  6  1  0
M  END
>  <Title>  (922) 
idABJLgen7

$$$$

     RDKit          2D

 14 15  0  0  0  0  0  0  0  0999 V2000
   -0.2487    5.6515    0.0000 C   0  0  0  0  0  0  0  0  0  0  0  0
    0.1935    4.2182    0.0000 C   0  0  0  0  0  0  0  0  0  0  0  0
    1.6559    3.8844    0.0000 C   0  0  0  0  0  0  0  0  0  0  0  0
    2.0980    2.4510    0.0000 C   0  0  0  0  0  0  0  0  0  0  0  0
    1.0777    1.3515    0.0000 C   0  0  0  0  0  0  0  0  0  0  0  0
    1.7286    0.0000    0.0000 C   0  0  0  0  0  0  0  0  0  0  0  0
    1.0777   -1.3515    0.0000 C   0  0  0  0  0  0  0  0  0  0  0  0
   -0.3846   -1.6852    0.0000 C   0  0  0  0  0  0  0  0  0  0  0  0
   -1.5574   -0.7500    0.0000 C   0  0  0  0  0  0  0  0  0  0  0  0
   -2.9088   -1.4008    0.0000 O   0  0  0  0  0  0  0  0  0  0  0  0
   -1.5574    0.7500    0.0000 C   0  0  0  0  0  0  0  0  0  0  0  0
   -0.3846    1.6852    0.0000 C   0  0  0  0  0  0  0  0  0  0  0  0
   -0.8268    3.1186    0.0000 C   0  0  0  0  0  0  0  0  0  0  0  0
   -2.2892    3.4524    0.0000 O   0  0  0  0  0  0  0  0  0  0  0  0
  1  2  1  0
  2  3  2  0
  3  4  1  0
  4  5  2  0
  5  6  1  0
  6  7  2  0
  7  8  1  0
  8  9  2  0
  9 10  1  0
  9 11  1  0
 11 12  2  0
 12 13  1  0
 13 14  2  0
 13  2  1  0
 12  5  1  0
M  END
>  <Title>  (923) 
idABJMgen7

$$$$

     RDKit          2D

 54 62  0  0  0  0  0  0  0  0999 V2000
    3.0000    0.0000    0.0000 C   0  0  0  0  0  0  0  0  0  0  0  0
    1.5000    0.0000    0.0000 C   0  0  0  0  0  0  0  0  0  0  0  0
    0.7500   -1.2990    0.0000 C   0  0  0  0  0  0  0  0  0  0  0  0
   -0.7500   -1.2990    0.0000 C   0  0  0  0  0  0  0  0  0  0  0  0
   -1.5000    0.0000    0.0000 C   0  0  0  0  0  0  0  0  0  0  0  0
   -3.0000    0.0000    0.0000 C   0  0  0  0  0  0  0  0  0  0  0  0
   -3.8817   -1.2135    0.0000 N   0  0  0  0  0  0  0  0  0  0  0  0
   -5.3083   -0.7500    0.0000 N   0  0  0  0  0  0  0  0  0  0  0  0
   -5.3083    0.7500    0.0000 N   0  0  0  0  0  0  0  0  0  0  0  0
   -3.8817    1.2135    0.0000 N   0  0  0  0  0  0  0  0  0  0  0  0
   -3.4182    2.6401    0.0000 C   0  0  0  0  0  0  0  0  0  0  0  0
   -1.9509    2.9520    0.0000 C   0  0  0  0  0  0  0  0  0  0  0  0
   -1.4874    4.3786    0.0000 C   0  0  0  0  0  0  0  0  0  0  0  0
   -2.4911    5.4933    0.0000 C   0  0  0  0  0  0  0  0  0  0  0  0
   -2.0276    6.9199    0.0000 C   0  0  0  0  0  0  0  0  0  0  0  0
   -2.9093    8.1334    0.0000 N   0  0  0  0  0  0  0  0  0  0  0  0
   -2.0276    9.3469    0.0000 N   0  0  0  0  0  0  0  0  0  0  0  0
   -0.6010    8.8834    0.0000 N   0  0  0  0  0  0  0  0  0  0  0  0
   -0.6010    7.3834    0.0000 N   0  0  0  0  0  0  0  0  0  0  0  0
    0.6125    6.5017    0.0000 C   0  0  0  0  0  0  0  0  0  0  0  0
    0.4557    5.0099    0.0000 C   0  0  0  0  0  0  0  0  0  0  0  0
    1.6693    4.1283    0.0000 C   0  0  0  0  0  0  0  0  0  0  0  0
    3.0396    4.7384    0.0000 C   0  0  0  0  0  0  0  0  0  0  0  0
    4.2531    3.8567    0.0000 C   0  0  0  0  0  0  0  0  0  0  0  0
    4.0963    2.3649    0.0000 C   0  0  0  0  0  0  0  0  0  0  0  0
    5.3098    1.4832    0.0000 C   0  0  0  0  0  0  0  0  0  0  0  0
    6.6802    2.0933    0.0000 C   0  0  0  0  0  0  0  0  0  0  0  0
    6.8370    3.5851    0.0000 C   0  0  0  0  0  0  0  0  0  0  0  0
    5.6234    4.4668    0.0000 C   0  0  0  0  0  0  0  0  0  0  0  0
    3.1964    6.2301    0.0000 C   0  0  0  0  0  0  0  0  0  0  0  0
    1.9829    7.1118    0.0000 C   0  0  0  0  0  0  0  0  0  0  0  0
   -3.9583    5.1814    0.0000 C   0  0  0  0  0  0  0  0  0  0  0  0
   -4.4218    3.7548    0.0000 C   0  0  0  0  0  0  0  0  0  0  0  0
   -5.8891    3.4430    0.0000 C   0  0  0  0  0  0  0  0  0  0  0  0
   -6.8928    4.5577    0.0000 C   0  0  0  0  0  0  0  0  0  0  0  0
   -8.3600    4.2458    0.0000 C   0  0  0  0  0  0  0  0  0  0  0  0
   -8.8235    2.8192    0.0000 C   0  0  0  0  0  0  0  0  0  0  0  0
  -10.2907    2.5074    0.0000 C   0  0  0  0  0  0  0  0  0  0  0  0
  -11.2944    3.6221    0.0000 C   0  0  0  0  0  0  0  0  0  0  0  0
  -12.7617    3.3102    0.0000 C   0  0  0  0  0  0  0  0  0  0  0  0
  -13.2252    1.8836    0.0000 C   0  0  0  0  0  0  0  0  0  0  0  0
  -14.6924    1.5718    0.0000 C   0  0  0  0  0  0  0  0  0  0  0  0
  -15.6961    2.6865    0.0000 C   0  0  0  0  0  0  0  0  0  0  0  0
  -17.1633    2.3746    0.0000 C   0  0  0  0  0  0  0  0  0  0  0  0
  -17.6268    0.9480    0.0000 C   0  0  0  0  0  0  0  0  0  0  0  0
  -16.6231   -0.1667    0.0000 C   0  0  0  0  0  0  0  0  0  0  0  0
  -15.1559    0.1452    0.0000 C   0  0  0  0  0  0  0  0  0  0  0  0
  -12.2215    0.7689    0.0000 C   0  0  0  0  0  0  0  0  0  0  0  0
  -10.7543    1.0808    0.0000 C   0  0  0  0  0  0  0  0  0  0  0  0
   -7.8198    1.7045    0.0000 C   0  0  0  0  0  0  0  0  0  0  0  0
   -8.2833    0.2779    0.0000 O   0  0  0  0  0  0  0  0  0  0  0  0
   -6.3526    2.0164    0.0000 N   0  0  0  0  0  0  0  0  0  0  0  0
   -0.7500    1.2990    0.0000 C   0  0  0  0  0  0  0  0  0  0  0  0
    0.7500    1.2990    0.0000 C   0  0  0  0  0  0  0  0  0  0  0  0
  1  2  1  0
  2  3  2  0
  3  4  1  0
  4  5  2  0
  5  6  1  0
  6  7  2  0
  7  8  1  0
  8  9  2  0
  9 10  1  0
 10 11  1  0
 11 12  2  0
 12 13  1  0
 13 14  2  0
 14 15  1  0
 15 16  2  0
 16 17  1  0
 17 18  2  0
 18 19  1  0
 19 20  1  0
 20 21  2  0
 21 22  1  0
 22 23  2  0
 23 24  1  0
 24 25  2  0
 25 26  1  0
 26 27  2  0
 27 28  1  0
 28 29  2  0
 23 30  1  0
 30 31  2  0
 14 32  1  0
 32 33  2  0
 33 34  1  0
 34 35  2  0
 35 36  1  0
 36 37  2  0
 37 38  1  0
 38 39  2  0
 39 40  1  0
 40 41  2  0
 41 42  1  0
 42 43  2  0
 43 44  1  0
 44 45  2  0
 45 46  1  0
 46 47  2  0
 41 48  1  0
 48 49  2  0
 37 50  1  0
 50 51  2  0
 50 52  1  0
  5 53  1  0
 53 54  2  0
 54  2  1  0
 10  6  1  0
 33 11  1  0
 52 34  1  0
 19 15  1  0
 31 20  1  0
 49 38  1  0
 29 24  1  0
 47 42  1  0
M  END
>  <Title>  (924) 
idABJNgen7

$$$$

     RDKit          2D

 10 11  0  0  0  0  0  0  0  0999 V2000
   -2.9499    4.2246    0.0000 O   0  0  0  0  0  0  0  0  0  0  0  0
   -1.8351    3.2209    0.0000 C   0  0  0  0  0  0  0  0  0  0  0  0
   -0.4086    3.6844    0.0000 C   0  0  0  0  0  0  0  0  0  0  0  0
    0.7062    2.6807    0.0000 C   0  0  0  0  0  0  0  0  0  0  0  0
    0.3943    1.2135    0.0000 C   0  0  0  0  0  0  0  0  0  0  0  0
    1.2760    0.0000    0.0000 C   0  0  0  0  0  0  0  0  0  0  0  0
    0.3943   -1.2135    0.0000 C   0  0  0  0  0  0  0  0  0  0  0  0
   -1.0323   -0.7500    0.0000 C   0  0  0  0  0  0  0  0  0  0  0  0
   -1.0323    0.7500    0.0000 C   0  0  0  0  0  0  0  0  0  0  0  0
   -2.1470    1.7537    0.0000 C   0  0  0  0  0  0  0  0  0  0  0  0
  1  2  1  0
  2  3  2  0
  3  4  1  0
  4  5  2  0
  5  6  1  0
  6  7  2  0
  7  8  1  0
  8  9  2  0
  9 10  1  0
 10  2  1  0
  9  5  1  0
M  END
>  <Title>  (925) 
idABJOgen7

$$$$

     RDKit          2D

 52 58  0  0  0  0  0  0  0  0999 V2000
    3.0000    0.0000    0.0000 C   0  0  0  0  0  0  0  0  0  0  0  0
    1.5000    0.0000    0.0000 C   0  0  0  0  0  0  0  0  0  0  0  0
    0.7500   -1.2990    0.0000 C   0  0  0  0  0  0  0  0  0  0  0  0
   -0.7500   -1.2990    0.0000 C   0  0  0  0  0  0  0  0  0  0  0  0
   -1.5000    0.0000    0.0000 C   0  0  0  0  0  0  0  0  0  0  0  0
   -3.0000    0.0000    0.0000 C   0  0  0  0  0  0  0  0  0  0  0  0
   -3.7500   -1.2990    0.0000 O   0  0  0  0  0  0  0  0  0  0  0  0
   -3.7500    1.2990    0.0000 N   0  0  0  0  0  0  0  0  0  0  0  0
   -5.2500    1.2990    0.0000 C   0  0  0  0  0  0  0  0  0  0  0  0
   -6.1317    0.0855    0.0000 N   0  0  0  0  0  0  0  0  0  0  0  0
   -7.5583    0.5490    0.0000 N   0  0  0  0  0  0  0  0  0  0  0  0
   -7.5583    2.0490    0.0000 N   0  0  0  0  0  0  0  0  0  0  0  0
   -6.1317    2.5126    0.0000 N   0  0  0  0  0  0  0  0  0  0  0  0
   -5.6682    3.9391    0.0000 C   0  0  0  0  0  0  0  0  0  0  0  0
   -4.2009    4.2510    0.0000 C   0  0  0  0  0  0  0  0  0  0  0  0
   -3.7374    5.6776    0.0000 C   0  0  0  0  0  0  0  0  0  0  0  0
   -4.7411    6.7923    0.0000 C   0  0  0  0  0  0  0  0  0  0  0  0
   -4.2776    8.2189    0.0000 C   0  0  0  0  0  0  0  0  0  0  0  0
   -5.2813    9.3336    0.0000 O   0  0  0  0  0  0  0  0  0  0  0  0
   -2.8104    8.5308    0.0000 N   0  0  0  0  0  0  0  0  0  0  0  0
   -2.3468    9.9574    0.0000 C   0  0  0  0  0  0  0  0  0  0  0  0
   -0.8796   10.2692    0.0000 C   0  0  0  0  0  0  0  0  0  0  0  0
   -0.4161   11.6958    0.0000 C   0  0  0  0  0  0  0  0  0  0  0  0
   -1.4198   12.8105    0.0000 C   0  0  0  0  0  0  0  0  0  0  0  0
   -0.9563   14.2371    0.0000 C   0  0  0  0  0  0  0  0  0  0  0  0
    0.5110   14.5490    0.0000 C   0  0  0  0  0  0  0  0  0  0  0  0
    0.9745   15.9756    0.0000 C   0  0  0  0  0  0  0  0  0  0  0  0
   -0.0292   17.0903    0.0000 C   0  0  0  0  0  0  0  0  0  0  0  0
   -1.4964   16.7784    0.0000 C   0  0  0  0  0  0  0  0  0  0  0  0
   -1.9599   15.3518    0.0000 C   0  0  0  0  0  0  0  0  0  0  0  0
   -2.8870   12.4987    0.0000 C   0  0  0  0  0  0  0  0  0  0  0  0
   -3.3505   11.0721    0.0000 C   0  0  0  0  0  0  0  0  0  0  0  0
   -6.2083    6.4805    0.0000 C   0  0  0  0  0  0  0  0  0  0  0  0
   -6.6718    5.0539    0.0000 C   0  0  0  0  0  0  0  0  0  0  0  0
   -8.1391    4.7420    0.0000 N   0  0  0  0  0  0  0  0  0  0  0  0
   -8.6026    3.3154    0.0000 C   0  0  0  0  0  0  0  0  0  0  0  0
  -10.0698    3.0035    0.0000 N   0  0  0  0  0  0  0  0  0  0  0  0
  -11.0735    4.1183    0.0000 N   0  0  0  0  0  0  0  0  0  0  0  0
  -10.6100    5.5448    0.0000 N   0  0  0  0  0  0  0  0  0  0  0  0
   -9.1428    5.8567    0.0000 N   0  0  0  0  0  0  0  0  0  0  0  0
   -8.6792    7.2833    0.0000 C   0  0  0  0  0  0  0  0  0  0  0  0
   -9.6829    8.3980    0.0000 C   0  0  0  0  0  0  0  0  0  0  0  0
   -9.2194    9.8246    0.0000 C   0  0  0  0  0  0  0  0  0  0  0  0
   -7.7522   10.1365    0.0000 C   0  0  0  0  0  0  0  0  0  0  0  0
   -7.2887   11.5631    0.0000 C   0  0  0  0  0  0  0  0  0  0  0  0
   -5.8214   11.8749    0.0000 O   0  0  0  0  0  0  0  0  0  0  0  0
   -8.2924   12.6778    0.0000 N   0  0  0  0  0  0  0  0  0  0  0  0
   -7.8288   14.1044    0.0000 O   0  0  0  0  0  0  0  0  0  0  0  0
   -6.7485    9.0218    0.0000 C   0  0  0  0  0  0  0  0  0  0  0  0
   -7.2120    7.5952    0.0000 C   0  0  0  0  0  0  0  0  0  0  0  0
   -0.7500    1.2990    0.0000 C   0  0  0  0  0  0  0  0  0  0  0  0
    0.7500    1.2990    0.0000 C   0  0  0  0  0  0  0  0  0  0  0  0
  1  2  1  0
  2  3  2  0
  3  4  1  0
  4  5  2  0
  5  6  1  0
  6  7  2  0
  6  8  1  0
  8  9  1  0
  9 10  2  0
 10 11  1  0
 11 12  2  0
 12 13  1  0
 13 14  1  0
 14 15  2  0
 15 16  1  0
 16 17  2  0
 17 18  1  0
 18 19  2  0
 18 20  1  0
 20 21  1  0
 21 22  2  0
 22 23  1  0
 23 24  2  0
 24 25  1  0
 25 26  2  0
 26 27  1  0
 27 28  2  0
 28 29  1  0
 29 30  2  0
 24 31  1  0
 31 32  2  0
 17 33  1  0
 33 34  2  0
 34 35  1  0
 35 36  1  0
 36 37  1  0
 37 38  1  0
 38 39  2  0
 39 40  1  0
 40 41  1  0
 41 42  2  0
 42 43  1  0
 43 44  2  0
 44 45  1  0
 45 46  2  0
 45 47  1  0
 47 48  1  0
 44 49  1  0
 49 50  1  0
  5 51  1  0
 51 52  2  0
 52  2  1  0
 13  9  1  0
 34 14  1  0
 40 35  1  0
 50 41  1  0
 32 21  1  0
 30 25  1  0
M  END
>  <Title>  (926) 
idABJPgen7

$$$$

     RDKit          2D

 28 31  0  0  0  0  0  0  0  0999 V2000
    3.0000    0.0000    0.0000 C   0  0  0  0  0  0  0  0  0  0  0  0
    1.5000    0.0000    0.0000 C   0  0  0  0  0  0  0  0  0  0  0  0
    0.7500    1.2990    0.0000 C   0  0  0  0  0  0  0  0  0  0  0  0
   -0.7500    1.2990    0.0000 C   0  0  0  0  0  0  0  0  0  0  0  0
   -1.5000    0.0000    0.0000 C   0  0  0  0  0  0  0  0  0  0  0  0
   -3.0000    0.0000    0.0000 C   0  0  0  0  0  0  0  0  0  0  0  0
   -3.8817   -1.2135    0.0000 N   0  0  0  0  0  0  0  0  0  0  0  0
   -5.3083   -0.7500    0.0000 N   0  0  0  0  0  0  0  0  0  0  0  0
   -5.3083    0.7500    0.0000 N   0  0  0  0  0  0  0  0  0  0  0  0
   -3.8817    1.2135    0.0000 N   0  0  0  0  0  0  0  0  0  0  0  0
   -3.4182    2.6401    0.0000 C   0  0  0  0  0  0  0  0  0  0  0  0
   -4.2998    3.8536    0.0000 C   0  0  0  0  0  0  0  0  0  0  0  0
   -3.4182    5.0672    0.0000 C   0  0  0  0  0  0  0  0  0  0  0  0
   -1.9916    4.6036    0.0000 C   0  0  0  0  0  0  0  0  0  0  0  0
   -0.7780    5.4853    0.0000 N   0  0  0  0  0  0  0  0  0  0  0  0
   -0.9348    6.9771    0.0000 C   0  0  0  0  0  0  0  0  0  0  0  0
   -2.3052    7.5872    0.0000 O   0  0  0  0  0  0  0  0  0  0  0  0
    0.2787    7.8588    0.0000 C   0  0  0  0  0  0  0  0  0  0  0  0
    1.6490    7.2487    0.0000 C   0  0  0  0  0  0  0  0  0  0  0  0
    2.8625    8.1303    0.0000 C   0  0  0  0  0  0  0  0  0  0  0  0
    2.7057    9.6221    0.0000 C   0  0  0  0  0  0  0  0  0  0  0  0
    1.3354   10.2322    0.0000 C   0  0  0  0  0  0  0  0  0  0  0  0
    0.1219    9.3506    0.0000 C   0  0  0  0  0  0  0  0  0  0  0  0
   -1.9916    3.1036    0.0000 C   0  0  0  0  0  0  0  0  0  0  0  0
   -0.7780    2.2220    0.0000 O   0  0  0  0  0  0  0  0  0  0  0  0
   -0.7500   -1.2990    0.0000 C   0  0  0  0  0  0  0  0  0  0  0  0
   -1.5000   -2.5981    0.0000 O   0  0  0  0  0  0  0  0  0  0  0  0
    0.7500   -1.2990    0.0000 N   0  0  0  0  0  0  0  0  0  0  0  0
  1  2  1  0
  2  3  2  0
  3  4  1  0
  4  5  2  0
  5  6  1  0
  6  7  2  0
  7  8  1  0
  8  9  2  0
  9 10  1  0
 10 11  1  0
 11 12  2  0
 12 13  1  0
 13 14  2  0
 14 15  1  0
 15 16  1  0
 16 17  2  0
 16 18  1  0
 18 19  2  0
 19 20  1  0
 20 21  2  0
 21 22  1  0
 22 23  2  0
 14 24  1  0
 24 25  2  0
  5 26  1  0
 26 27  2  0
 26 28  1  0
 28  2  1  0
 10  6  1  0
 24 11  1  0
 23 18  1  0
M  END
>  <Title>  (927) 
idABJQgen7

$$$$

     RDKit          2D

 11 12  0  0  0  0  0  0  0  0999 V2000
   -2.6380    5.6918    0.0000 C   0  0  0  0  0  0  0  0  0  0  0  0
   -2.9499    4.2246    0.0000 O   0  0  0  0  0  0  0  0  0  0  0  0
   -1.8351    3.2209    0.0000 C   0  0  0  0  0  0  0  0  0  0  0  0
   -0.4086    3.6844    0.0000 C   0  0  0  0  0  0  0  0  0  0  0  0
    0.7062    2.6807    0.0000 C   0  0  0  0  0  0  0  0  0  0  0  0
    0.3943    1.2135    0.0000 C   0  0  0  0  0  0  0  0  0  0  0  0
    1.2760    0.0000    0.0000 C   0  0  0  0  0  0  0  0  0  0  0  0
    0.3943   -1.2135    0.0000 C   0  0  0  0  0  0  0  0  0  0  0  0
   -1.0323   -0.7500    0.0000 C   0  0  0  0  0  0  0  0  0  0  0  0
   -1.0323    0.7500    0.0000 C   0  0  0  0  0  0  0  0  0  0  0  0
   -2.1470    1.7537    0.0000 C   0  0  0  0  0  0  0  0  0  0  0  0
  1  2  1  0
  2  3  1  0
  3  4  2  0
  4  5  1  0
  5  6  2  0
  6  7  1  0
  7  8  2  0
  8  9  1  0
  9 10  2  0
 10 11  1  0
 11  3  1  0
 10  6  1  0
M  END
>  <Title>  (928) 
idABJRgen7

$$$$

     RDKit          2D

 27 30  0  0  0  0  0  0  0  0999 V2000
    3.0000    0.0000    0.0000 C   0  0  0  0  0  0  0  0  0  0  0  0
    1.5000    0.0000    0.0000 C   0  0  0  0  0  0  0  0  0  0  0  0
    0.7500   -1.2990    0.0000 C   0  0  0  0  0  0  0  0  0  0  0  0
   -0.7500   -1.2990    0.0000 C   0  0  0  0  0  0  0  0  0  0  0  0
   -1.5000    0.0000    0.0000 C   0  0  0  0  0  0  0  0  0  0  0  0
   -3.0000    0.0000    0.0000 C   0  0  0  0  0  0  0  0  0  0  0  0
   -3.7500   -1.2990    0.0000 O   0  0  0  0  0  0  0  0  0  0  0  0
   -3.7500    1.2990    0.0000 N   0  0  0  0  0  0  0  0  0  0  0  0
   -5.2500    1.2990    0.0000 C   0  0  0  0  0  0  0  0  0  0  0  0
   -6.1317    0.0855    0.0000 N   0  0  0  0  0  0  0  0  0  0  0  0
   -7.5583    0.5490    0.0000 N   0  0  0  0  0  0  0  0  0  0  0  0
   -7.5583    2.0490    0.0000 N   0  0  0  0  0  0  0  0  0  0  0  0
   -6.1317    2.5126    0.0000 N   0  0  0  0  0  0  0  0  0  0  0  0
   -5.6682    3.9391    0.0000 C   0  0  0  0  0  0  0  0  0  0  0  0
   -4.2009    4.2510    0.0000 C   0  0  0  0  0  0  0  0  0  0  0  0
   -3.7374    5.6776    0.0000 C   0  0  0  0  0  0  0  0  0  0  0  0
   -4.7411    6.7923    0.0000 C   0  0  0  0  0  0  0  0  0  0  0  0
   -6.2083    6.4805    0.0000 C   0  0  0  0  0  0  0  0  0  0  0  0
   -6.6718    5.0539    0.0000 C   0  0  0  0  0  0  0  0  0  0  0  0
   -8.1391    4.7420    0.0000 C   0  0  0  0  0  0  0  0  0  0  0  0
   -9.1428    5.8567    0.0000 C   0  0  0  0  0  0  0  0  0  0  0  0
  -10.6100    5.5448    0.0000 C   0  0  0  0  0  0  0  0  0  0  0  0
  -11.0735    4.1183    0.0000 C   0  0  0  0  0  0  0  0  0  0  0  0
  -10.0698    3.0035    0.0000 C   0  0  0  0  0  0  0  0  0  0  0  0
   -8.6026    3.3154    0.0000 C   0  0  0  0  0  0  0  0  0  0  0  0
   -0.7500    1.2990    0.0000 C   0  0  0  0  0  0  0  0  0  0  0  0
    0.7500    1.2990    0.0000 C   0  0  0  0  0  0  0  0  0  0  0  0
  1  2  1  0
  2  3  2  0
  3  4  1  0
  4  5  2  0
  5  6  1  0
  6  7  2  0
  6  8  1  0
  8  9  1  0
  9 10  2  0
 10 11  1  0
 11 12  2  0
 12 13  1  0
 13 14  1  0
 14 15  2  0
 15 16  1  0
 16 17  2  0
 17 18  1  0
 18 19  2  0
 19 20  1  0
 20 21  2  0
 21 22  1  0
 22 23  2  0
 23 24  1  0
 24 25  2  0
  5 26  1  0
 26 27  2  0
 27  2  1  0
 13  9  1  0
 19 14  1  0
 25 20  1  0
M  END
>  <Title>  (929) 
idABJSgen7

$$$$

     RDKit          2D

 23 23  0  0  0  0  0  0  0  0999 V2000
    6.5321    0.0000    0.0000 C   0  0  0  0  0  0  0  0  0  0  0  0
    5.0321    0.0000    0.0000 C   0  0  0  0  0  0  0  0  0  0  0  0
    4.8086    1.4832    0.0000 C   0  0  0  0  0  0  0  0  0  0  0  0
    4.1577    2.8347    0.0000 C   0  0  0  0  0  0  0  0  0  0  0  0
    3.1375    3.9343    0.0000 C   0  0  0  0  0  0  0  0  0  0  0  0
    1.8384    4.6843    0.0000 C   0  0  0  0  0  0  0  0  0  0  0  0
    0.3761    5.0181    0.0000 C   0  0  0  0  0  0  0  0  0  0  0  0
   -1.1198    4.9060    0.0000 C   0  0  0  0  0  0  0  0  0  0  0  0
   -2.5161    4.3580    0.0000 C   0  0  0  0  0  0  0  0  0  0  0  0
   -3.6888    3.4227    0.0000 C   0  0  0  0  0  0  0  0  0  0  0  0
   -4.5338    2.1834    0.0000 C   0  0  0  0  0  0  0  0  0  0  0  0
   -4.9759    0.7500    0.0000 C   0  0  0  0  0  0  0  0  0  0  0  0
   -4.9759   -0.7500    0.0000 C   0  0  0  0  0  0  0  0  0  0  0  0
   -4.5338   -2.1834    0.0000 C   0  0  0  0  0  0  0  0  0  0  0  0
   -3.6888   -3.4227    0.0000 C   0  0  0  0  0  0  0  0  0  0  0  0
   -2.5161   -4.3580    0.0000 C   0  0  0  0  0  0  0  0  0  0  0  0
   -1.1198   -4.9060    0.0000 C   0  0  0  0  0  0  0  0  0  0  0  0
    0.3761   -5.0181    0.0000 C   0  0  0  0  0  0  0  0  0  0  0  0
    1.8384   -4.6843    0.0000 C   0  0  0  0  0  0  0  0  0  0  0  0
    3.1375   -3.9343    0.0000 C   0  0  0  0  0  0  0  0  0  0  0  0
    4.1577   -2.8347    0.0000 C   0  0  0  0  0  0  0  0  0  0  0  0
    5.3971   -3.6797    0.0000 C   0  0  0  0  0  0  0  0  0  0  0  0
    4.8086   -1.4832    0.0000 C   0  0  0  0  0  0  0  0  0  0  0  0
  1  2  1  0
  2  3  2  0
  3  4  1  0
  4  5  2  0
  5  6  1  0
  6  7  2  0
  7  8  1  0
  8  9  2  0
  9 10  1  0
 10 11  2  0
 11 12  1  0
 12 13  2  0
 13 14  1  0
 14 15  2  0
 15 16  1  0
 16 17  2  0
 17 18  1  0
 18 19  2  0
 19 20  1  0
 20 21  2  0
 21 22  1  0
 21 23  1  0
 23  2  1  0
M  END
>  <Title>  (930) 
idABJTgen7

$$$$

     RDKit          2D

 13 14  0  0  0  0  0  0  0  0999 V2000
    3.0000    0.0000    0.0000 C   0  0  0  0  0  0  0  0  0  0  0  0
    1.5000    0.0000    0.0000 C   0  0  0  0  0  0  0  0  0  0  0  0
    0.7500   -1.2990    0.0000 C   0  0  0  0  0  0  0  0  0  0  0  0
   -0.7500   -1.2990    0.0000 C   0  0  0  0  0  0  0  0  0  0  0  0
   -1.5000    0.0000    0.0000 C   0  0  0  0  0  0  0  0  0  0  0  0
   -3.0000    0.0000    0.0000 N   0  0  0  0  0  0  0  0  0  0  0  0
   -3.7500    1.2990    0.0000 C   0  0  0  0  0  0  0  0  0  0  0  0
   -5.2500    1.2990    0.0000 C   0  0  0  0  0  0  0  0  0  0  0  0
   -6.0000    0.0000    0.0000 N   0  0  0  0  0  0  0  0  0  0  0  0
   -5.2500   -1.2990    0.0000 C   0  0  0  0  0  0  0  0  0  0  0  0
   -3.7500   -1.2990    0.0000 C   0  0  0  0  0  0  0  0  0  0  0  0
   -0.7500    1.2990    0.0000 C   0  0  0  0  0  0  0  0  0  0  0  0
    0.7500    1.2990    0.0000 C   0  0  0  0  0  0  0  0  0  0  0  0
  1  2  1  0
  2  3  2  0
  3  4  1  0
  4  5  2  0
  5  6  1  0
  6  7  1  0
  7  8  1  0
  8  9  1  0
  9 10  1  0
 10 11  1  0
  5 12  1  0
 12 13  1  0
 13  2  1  0
 11  6  1  0
M  END
>  <Title>  (931) 
idABJUgen7

$$$$

     RDKit          2D

 31 34  0  0  0  0  0  0  0  0999 V2000
    3.0000    0.0000    0.0000 C   0  0  0  0  0  0  0  0  0  0  0  0
    1.5000    0.0000    0.0000 C   0  0  0  0  0  0  0  0  0  0  0  0
    0.7500   -1.2990    0.0000 C   0  0  0  0  0  0  0  0  0  0  0  0
   -0.7500   -1.2990    0.0000 C   0  0  0  0  0  0  0  0  0  0  0  0
   -1.5000    0.0000    0.0000 C   0  0  0  0  0  0  0  0  0  0  0  0
   -3.0000    0.0000    0.0000 C   0  0  0  0  0  0  0  0  0  0  0  0
   -3.7500   -1.2990    0.0000 O   0  0  0  0  0  0  0  0  0  0  0  0
   -3.7500    1.2990    0.0000 N   0  0  0  0  0  0  0  0  0  0  0  0
   -5.2500    1.2990    0.0000 C   0  0  0  0  0  0  0  0  0  0  0  0
   -6.1317    0.0855    0.0000 N   0  0  0  0  0  0  0  0  0  0  0  0
   -7.5583    0.5490    0.0000 N   0  0  0  0  0  0  0  0  0  0  0  0
   -7.5583    2.0490    0.0000 N   0  0  0  0  0  0  0  0  0  0  0  0
   -6.1317    2.5126    0.0000 N   0  0  0  0  0  0  0  0  0  0  0  0
   -5.6682    3.9391    0.0000 C   0  0  0  0  0  0  0  0  0  0  0  0
   -4.2009    4.2510    0.0000 C   0  0  0  0  0  0  0  0  0  0  0  0
   -3.7374    5.6776    0.0000 C   0  0  0  0  0  0  0  0  0  0  0  0
   -4.7411    6.7923    0.0000 C   0  0  0  0  0  0  0  0  0  0  0  0
   -4.2776    8.2189    0.0000 N   0  0  0  0  0  0  0  0  0  0  0  0
   -2.8104    8.5308    0.0000 C   0  0  0  0  0  0  0  0  0  0  0  0
   -1.8067    7.4161    0.0000 O   0  0  0  0  0  0  0  0  0  0  0  0
   -2.3468    9.9574    0.0000 C   0  0  0  0  0  0  0  0  0  0  0  0
   -0.8796   10.2692    0.0000 C   0  0  0  0  0  0  0  0  0  0  0  0
   -0.4161   11.6958    0.0000 C   0  0  0  0  0  0  0  0  0  0  0  0
   -1.4198   12.8105    0.0000 C   0  0  0  0  0  0  0  0  0  0  0  0
   -2.8870   12.4987    0.0000 C   0  0  0  0  0  0  0  0  0  0  0  0
   -3.3505   11.0721    0.0000 C   0  0  0  0  0  0  0  0  0  0  0  0
   -6.2083    6.4805    0.0000 C   0  0  0  0  0  0  0  0  0  0  0  0
   -6.6718    5.0539    0.0000 C   0  0  0  0  0  0  0  0  0  0  0  0
   -0.7500    1.2990    0.0000 C   0  0  0  0  0  0  0  0  0  0  0  0
   -1.5000    2.5981    0.0000 O   0  0  0  0  0  0  0  0  0  0  0  0
    0.7500    1.2990    0.0000 N   0  0  0  0  0  0  0  0  0  0  0  0
  1  2  1  0
  2  3  2  0
  3  4  1  0
  4  5  2  0
  5  6  1  0
  6  7  2  0
  6  8  1  0
  8  9  1  0
  9 10  2  0
 10 11  1  0
 11 12  2  0
 12 13  1  0
 13 14  1  0
 14 15  2  0
 15 16  1  0
 16 17  2  0
 17 18  1  0
 18 19  1  0
 19 20  2  0
 19 21  1  0
 21 22  2  0
 22 23  1  0
 23 24  2  0
 24 25  1  0
 25 26  2  0
 17 27  1  0
 27 28  2  0
  5 29  1  0
 29 30  2  0
 29 31  1  0
 31  2  1  0
 13  9  1  0
 28 14  1  0
 26 21  1  0
M  END
>  <Title>  (932) 
idABJVgen7

$$$$

     RDKit          2D

 12 12  0  0  0  0  0  0  0  0999 V2000
    4.1621    0.0000    0.0000 C   0  0  0  0  0  0  0  0  0  0  0  0
    2.6621    0.0000    0.0000 C   0  0  0  0  0  0  0  0  0  0  0  0
    2.2395    1.4392    0.0000 C   0  0  0  0  0  0  0  0  0  0  0  0
    1.1059    2.4215    0.0000 C   0  0  0  0  0  0  0  0  0  0  0  0
   -0.3789    2.6350    0.0000 C   0  0  0  0  0  0  0  0  0  0  0  0
   -1.7433    2.0119    0.0000 C   0  0  0  0  0  0  0  0  0  0  0  0
   -2.5543    0.7500    0.0000 C   0  0  0  0  0  0  0  0  0  0  0  0
   -2.5543   -0.7500    0.0000 C   0  0  0  0  0  0  0  0  0  0  0  0
   -1.7433   -2.0119    0.0000 C   0  0  0  0  0  0  0  0  0  0  0  0
   -0.3789   -2.6350    0.0000 C   0  0  0  0  0  0  0  0  0  0  0  0
    1.1059   -2.4215    0.0000 C   0  0  0  0  0  0  0  0  0  0  0  0
    2.2395   -1.4392    0.0000 C   0  0  0  0  0  0  0  0  0  0  0  0
  1  2  1  0
  2  3  2  0
  3  4  1  0
  4  5  2  0
  5  6  1  0
  6  7  2  0
  7  8  1  0
  8  9  2  0
  9 10  1  0
 10 11  2  0
 11 12  1  0
 12  2  1  0
M  END
>  <Title>  (933) 
idABJWgen7

$$$$

     RDKit          2D

 25 28  0  0  0  0  0  0  0  0999 V2000
   -1.5000    2.5981    0.0000 O   0  0  0  0  0  0  0  0  0  0  0  0
   -0.7500    1.2990    0.0000 C   0  0  0  0  0  0  0  0  0  0  0  0
   -1.5000    0.0000    0.0000 N   0  0  0  0  0  0  0  0  0  0  0  0
   -0.7500   -1.2990    0.0000 C   0  0  0  0  0  0  0  0  0  0  0  0
   -1.5000   -2.5981    0.0000 O   0  0  0  0  0  0  0  0  0  0  0  0
    0.7500   -1.2990    0.0000 C   0  0  0  0  0  0  0  0  0  0  0  0
    1.5000   -0.0000    0.0000 C   0  0  0  0  0  0  0  0  0  0  0  0
    0.7500    1.2990    0.0000 C   0  0  0  0  0  0  0  0  0  0  0  0
    1.5000    2.5981    0.0000 C   0  0  0  0  0  0  0  0  0  0  0  0
    0.8899    3.9684    0.0000 N   0  0  0  0  0  0  0  0  0  0  0  0
    2.0046    4.9721    0.0000 N   0  0  0  0  0  0  0  0  0  0  0  0
    3.3037    4.2221    0.0000 N   0  0  0  0  0  0  0  0  0  0  0  0
    2.9918    2.7549    0.0000 N   0  0  0  0  0  0  0  0  0  0  0  0
    3.9955    1.6402    0.0000 C   0  0  0  0  0  0  0  0  0  0  0  0
    3.5320    0.2136    0.0000 C   0  0  0  0  0  0  0  0  0  0  0  0
    4.5356   -0.9012    0.0000 C   0  0  0  0  0  0  0  0  0  0  0  0
    6.0029   -0.5893    0.0000 C   0  0  0  0  0  0  0  0  0  0  0  0
    7.0066   -1.7040    0.0000 C   0  0  0  0  0  0  0  0  0  0  0  0
    6.5430   -3.1306    0.0000 C   0  0  0  0  0  0  0  0  0  0  0  0
    7.5467   -4.2453    0.0000 C   0  0  0  0  0  0  0  0  0  0  0  0
    9.0140   -3.9334    0.0000 C   0  0  0  0  0  0  0  0  0  0  0  0
    9.4775   -2.5068    0.0000 C   0  0  0  0  0  0  0  0  0  0  0  0
    8.4738   -1.3921    0.0000 C   0  0  0  0  0  0  0  0  0  0  0  0
    6.4664    0.8373    0.0000 C   0  0  0  0  0  0  0  0  0  0  0  0
    5.4627    1.9520    0.0000 C   0  0  0  0  0  0  0  0  0  0  0  0
  1  2  2  0
  2  3  1  0
  3  4  1  0
  4  5  1  0
  4  6  2  0
  6  7  1  0
  7  8  2  0
  8  9  1  0
  9 10  2  0
 10 11  1  0
 11 12  2  0
 12 13  1  0
 13 14  1  0
 14 15  2  0
 15 16  1  0
 16 17  2  0
 17 18  1  0
 18 19  2  0
 19 20  1  0
 20 21  2  0
 21 22  1  0
 22 23  2  0
 17 24  1  0
 24 25  2  0
  8  2  1  0
 13  9  1  0
 25 14  1  0
 23 18  1  0
M  END
>  <Title>  (934) 
idABJXgen7

$$$$

     RDKit          2D

 20 21  0  0  0  0  0  0  0  0999 V2000
    3.2286   -0.0000    0.0000 C   0  0  0  0  0  0  0  0  0  0  0  0
    1.7286    0.0000    0.0000 C   0  0  0  0  0  0  0  0  0  0  0  0
    1.0777    1.3515    0.0000 C   0  0  0  0  0  0  0  0  0  0  0  0
   -0.3846    1.6852    0.0000 C   0  0  0  0  0  0  0  0  0  0  0  0
   -1.5574    0.7500    0.0000 C   0  0  0  0  0  0  0  0  0  0  0  0
   -1.5574   -0.7500    0.0000 C   0  0  0  0  0  0  0  0  0  0  0  0
   -2.9088   -1.4008    0.0000 C   0  0  0  0  0  0  0  0  0  0  0  0
   -3.0209   -2.8966    0.0000 O   0  0  0  0  0  0  0  0  0  0  0  0
   -4.1482   -0.5558    0.0000 N   0  0  0  0  0  0  0  0  0  0  0  0
   -5.4997   -1.2067    0.0000 C   0  0  0  0  0  0  0  0  0  0  0  0
   -6.7390   -0.3617    0.0000 C   0  0  0  0  0  0  0  0  0  0  0  0
   -8.0905   -1.0125    0.0000 C   0  0  0  0  0  0  0  0  0  0  0  0
   -8.2026   -2.5083    0.0000 C   0  0  0  0  0  0  0  0  0  0  0  0
   -9.5540   -3.1591    0.0000 C   0  0  0  0  0  0  0  0  0  0  0  0
   -6.9632   -3.3533    0.0000 C   0  0  0  0  0  0  0  0  0  0  0  0
   -7.0753   -4.8491    0.0000 O   0  0  0  0  0  0  0  0  0  0  0  0
   -5.6118   -2.7025    0.0000 N   0  0  0  0  0  0  0  0  0  0  0  0
   -0.3846   -1.6852    0.0000 C   0  0  0  0  0  0  0  0  0  0  0  0
   -0.7184   -3.1476    0.0000 O   0  0  0  0  0  0  0  0  0  0  0  0
    1.0777   -1.3515    0.0000 N   0  0  0  0  0  0  0  0  0  0  0  0
  1  2  1  0
  2  3  2  0
  3  4  1  0
  4  5  2  0
  5  6  1  0
  6  7  1  0
  7  8  2  0
  7  9  1  0
  9 10  1  0
 10 11  2  0
 11 12  1  0
 12 13  2  0
 13 14  1  0
 13 15  1  0
 15 16  2  0
 15 17  1  0
  6 18  1  0
 18 19  2  0
 18 20  1  0
 20  2  1  0
 17 10  1  0
M  END
>  <Title>  (935) 
idABJYgen7

$$$$

     RDKit          2D

 34 38  0  0  0  0  0  0  0  0999 V2000
  -14.9064   -7.9344    0.0000 C   0  0  0  0  0  0  0  0  0  0  0  0
  -13.4448   -7.5970    0.0000 C   0  0  0  0  0  0  0  0  0  0  0  0
  -13.0062   -6.1625    0.0000 C   0  0  0  0  0  0  0  0  0  0  0  0
  -11.5447   -5.8251    0.0000 C   0  0  0  0  0  0  0  0  0  0  0  0
  -10.5217   -6.9221    0.0000 C   0  0  0  0  0  0  0  0  0  0  0  0
   -9.0601   -6.5847    0.0000 N   0  0  0  0  0  0  0  0  0  0  0  0
   -8.1891   -7.8059    0.0000 C   0  0  0  0  0  0  0  0  0  0  0  0
   -6.7096   -8.0534    0.0000 C   0  0  0  0  0  0  0  0  0  0  0  0
   -5.4885   -7.1824    0.0000 C   0  0  0  0  0  0  0  0  0  0  0  0
   -5.2409   -5.7029    0.0000 C   0  0  0  0  0  0  0  0  0  0  0  0
   -3.7793   -5.3655    0.0000 C   0  0  0  0  0  0  0  0  0  0  0  0
   -6.1120   -4.4818    0.0000 N   0  0  0  0  0  0  0  0  0  0  0  0
   -5.3171   -3.2097    0.0000 C   0  0  0  0  0  0  0  0  0  0  0  0
   -3.8499   -3.5216    0.0000 C   0  0  0  0  0  0  0  0  0  0  0  0
   -2.5254   -2.8174    0.0000 C   0  0  0  0  0  0  0  0  0  0  0  0
   -1.9635   -1.4266    0.0000 C   0  0  0  0  0  0  0  0  0  0  0  0
   -0.7500   -2.3083    0.0000 C   0  0  0  0  0  0  0  0  0  0  0  0
    0.7500   -2.3083    0.0000 C   0  0  0  0  0  0  0  0  0  0  0  0
    1.9635   -1.4266    0.0000 C   0  0  0  0  0  0  0  0  0  0  0  0
    2.4271    0.0000    0.0000 C   0  0  0  0  0  0  0  0  0  0  0  0
    1.9635    1.4266    0.0000 C   0  0  0  0  0  0  0  0  0  0  0  0
    0.7500    2.3083    0.0000 C   0  0  0  0  0  0  0  0  0  0  0  0
   -0.7500    2.3083    0.0000 C   0  0  0  0  0  0  0  0  0  0  0  0
   -1.9635    1.4266    0.0000 C   0  0  0  0  0  0  0  0  0  0  0  0
   -2.4271    0.0000    0.0000 C   0  0  0  0  0  0  0  0  0  0  0  0
   -3.6991    0.7949    0.0000 N   0  0  0  0  0  0  0  0  0  0  0  0
   -5.1845    0.5861    0.0000 N   0  0  0  0  0  0  0  0  0  0  0  0
   -6.1882   -0.5286    0.0000 N   0  0  0  0  0  0  0  0  0  0  0  0
   -6.2406   -2.0277    0.0000 N   0  0  0  0  0  0  0  0  0  0  0  0
   -7.5914   -4.2342    0.0000 N   0  0  0  0  0  0  0  0  0  0  0  0
   -8.8126   -5.1053    0.0000 N   0  0  0  0  0  0  0  0  0  0  0  0
  -10.9602   -8.3566    0.0000 C   0  0  0  0  0  0  0  0  0  0  0  0
   -9.9372   -9.4536    0.0000 O   0  0  0  0  0  0  0  0  0  0  0  0
  -12.4218   -8.6940    0.0000 N   0  0  0  0  0  0  0  0  0  0  0  0
  1  2  1  0
  2  3  2  0
  3  4  1  0
  4  5  2  0
  5  6  1  0
  6  7  1  0
  7  8  2  0
  8  9  1  0
  9 10  2  0
 10 11  1  0
 10 12  1  0
 12 13  1  0
 13 14  2  0
 14 15  1  0
 15 16  2  0
 16 17  1  0
 17 18  2  0
 18 19  1  0
 19 20  2  0
 20 21  1  0
 21 22  2  0
 22 23  1  0
 23 24  2  0
 24 25  1  0
 25 26  2  0
 26 27  1  0
 27 28  2  0
 28 29  1  0
 12 30  1  0
 30 31  2  0
  5 32  1  0
 32 33  2  0
 32 34  1  0
 34  2  1  0
 31  6  1  0
 29 13  1  0
 25 16  1  0
 29 19  1  0
M  END
>  <Title>  (936) 
idABJZgen7

$$$$

     RDKit          2D

 27 29  0  0  0  0  0  0  0  0999 V2000
    3.0000    0.0000    0.0000 C   0  0  0  0  0  0  0  0  0  0  0  0
    1.5000    0.0000    0.0000 C   0  0  0  0  0  0  0  0  0  0  0  0
    0.7500   -1.2990    0.0000 C   0  0  0  0  0  0  0  0  0  0  0  0
   -0.7500   -1.2990    0.0000 C   0  0  0  0  0  0  0  0  0  0  0  0
   -1.5000    0.0000    0.0000 C   0  0  0  0  0  0  0  0  0  0  0  0
   -3.0000    0.0000    0.0000 C   0  0  0  0  0  0  0  0  0  0  0  0
   -3.7500   -1.2990    0.0000 O   0  0  0  0  0  0  0  0  0  0  0  0
   -3.7500    1.2990    0.0000 O   0  0  0  0  0  0  0  0  0  0  0  0
   -5.2500    1.2990    0.0000 C   0  0  0  0  0  0  0  0  0  0  0  0
   -6.0000    2.5981    0.0000 C   0  0  0  0  0  0  0  0  0  0  0  0
   -7.4918    2.7549    0.0000 N   0  0  0  0  0  0  0  0  0  0  0  0
   -7.8037    4.2221    0.0000 N   0  0  0  0  0  0  0  0  0  0  0  0
   -6.5046    4.9721    0.0000 N   0  0  0  0  0  0  0  0  0  0  0  0
   -5.3899    3.9684    0.0000 N   0  0  0  0  0  0  0  0  0  0  0  0
   -3.9227    4.2803    0.0000 C   0  0  0  0  0  0  0  0  0  0  0  0
   -2.9190    3.1655    0.0000 C   0  0  0  0  0  0  0  0  0  0  0  0
   -1.4518    3.4774    0.0000 C   0  0  0  0  0  0  0  0  0  0  0  0
   -0.9882    4.9040    0.0000 C   0  0  0  0  0  0  0  0  0  0  0  0
    0.4790    5.2159    0.0000 C   0  0  0  0  0  0  0  0  0  0  0  0
    1.4827    4.1011    0.0000 O   0  0  0  0  0  0  0  0  0  0  0  0
    0.9425    6.6424    0.0000 N   0  0  0  0  0  0  0  0  0  0  0  0
    2.4097    6.9543    0.0000 O   0  0  0  0  0  0  0  0  0  0  0  0
   -1.9919    6.0187    0.0000 C   0  0  0  0  0  0  0  0  0  0  0  0
   -3.4591    5.7068    0.0000 C   0  0  0  0  0  0  0  0  0  0  0  0
   -0.7500    1.2990    0.0000 C   0  0  0  0  0  0  0  0  0  0  0  0
   -1.5000    2.5981    0.0000 O   0  0  0  0  0  0  0  0  0  0  0  0
    0.7500    1.2990    0.0000 N   0  0  0  0  0  0  0  0  0  0  0  0
  1  2  1  0
  2  3  2  0
  3  4  1  0
  4  5  2  0
  5  6  1  0
  6  7  2  0
  6  8  1  0
  8  9  1  0
  9 10  1  0
 10 11  2  0
 11 12  1  0
 12 13  2  0
 13 14  1  0
 14 15  1  0
 15 16  2  0
 16 17  1  0
 17 18  2  0
 18 19  1  0
 19 20  2  0
 19 21  1  0
 21 22  1  0
 18 23  1  0
 23 24  1  0
  5 25  1  0
 25 26  2  0
 25 27  1  0
 27  2  1  0
 14 10  1  0
 24 15  1  0
M  END
>  <Title>  (937) 
idABKAgen7

$$$$

     RDKit          2D

 37 42  0  0  0  0  0  0  0  0999 V2000
    3.0000    0.0000    0.0000 O   0  0  0  0  0  0  0  0  0  0  0  0
    1.5000    0.0000    0.0000 C   0  0  0  0  0  0  0  0  0  0  0  0
    0.7500   -1.2990    0.0000 C   0  0  0  0  0  0  0  0  0  0  0  0
   -0.7500   -1.2990    0.0000 C   0  0  0  0  0  0  0  0  0  0  0  0
   -1.5000    0.0000    0.0000 C   0  0  0  0  0  0  0  0  0  0  0  0
   -3.0000    0.0000    0.0000 C   0  0  0  0  0  0  0  0  0  0  0  0
   -3.8817   -1.2135    0.0000 N   0  0  0  0  0  0  0  0  0  0  0  0
   -5.3083   -0.7500    0.0000 N   0  0  0  0  0  0  0  0  0  0  0  0
   -5.3083    0.7500    0.0000 N   0  0  0  0  0  0  0  0  0  0  0  0
   -3.8817    1.2135    0.0000 N   0  0  0  0  0  0  0  0  0  0  0  0
   -3.4182    2.6401    0.0000 C   0  0  0  0  0  0  0  0  0  0  0  0
   -1.9509    2.9520    0.0000 C   0  0  0  0  0  0  0  0  0  0  0  0
   -1.4874    4.3786    0.0000 C   0  0  0  0  0  0  0  0  0  0  0  0
   -2.4911    5.4933    0.0000 C   0  0  0  0  0  0  0  0  0  0  0  0
   -2.0276    6.9199    0.0000 C   0  0  0  0  0  0  0  0  0  0  0  0
   -0.5604    7.2317    0.0000 C   0  0  0  0  0  0  0  0  0  0  0  0
   -0.0968    8.6583    0.0000 C   0  0  0  0  0  0  0  0  0  0  0  0
   -1.1005    9.7730    0.0000 C   0  0  0  0  0  0  0  0  0  0  0  0
   -2.5677    9.4612    0.0000 C   0  0  0  0  0  0  0  0  0  0  0  0
   -3.0313    8.0346    0.0000 C   0  0  0  0  0  0  0  0  0  0  0  0
   -3.9583    5.1814    0.0000 C   0  0  0  0  0  0  0  0  0  0  0  0
   -4.4218    3.7548    0.0000 C   0  0  0  0  0  0  0  0  0  0  0  0
   -5.8891    3.4430    0.0000 C   0  0  0  0  0  0  0  0  0  0  0  0
   -6.8928    4.5577    0.0000 C   0  0  0  0  0  0  0  0  0  0  0  0
   -8.3600    4.2458    0.0000 C   0  0  0  0  0  0  0  0  0  0  0  0
   -8.8235    2.8192    0.0000 C   0  0  0  0  0  0  0  0  0  0  0  0
  -10.2907    2.5074    0.0000 C   0  0  0  0  0  0  0  0  0  0  0  0
  -11.2944    3.6221    0.0000 C   0  0  0  0  0  0  0  0  0  0  0  0
  -10.8309    5.0487    0.0000 C   0  0  0  0  0  0  0  0  0  0  0  0
  -11.8346    6.1634    0.0000 C   0  0  0  0  0  0  0  0  0  0  0  0
  -13.3018    5.8515    0.0000 C   0  0  0  0  0  0  0  0  0  0  0  0
  -13.7653    4.4249    0.0000 N   0  0  0  0  0  0  0  0  0  0  0  0
  -12.7617    3.3102    0.0000 C   0  0  0  0  0  0  0  0  0  0  0  0
   -7.8198    1.7045    0.0000 C   0  0  0  0  0  0  0  0  0  0  0  0
   -6.3526    2.0164    0.0000 C   0  0  0  0  0  0  0  0  0  0  0  0
   -0.7500    1.2990    0.0000 C   0  0  0  0  0  0  0  0  0  0  0  0
    0.7500    1.2990    0.0000 C   0  0  0  0  0  0  0  0  0  0  0  0
  1  2  1  0
  2  3  2  0
  3  4  1  0
  4  5  2  0
  5  6  1  0
  6  7  2  0
  7  8  1  0
  8  9  2  0
  9 10  1  0
 10 11  1  0
 11 12  2  0
 12 13  1  0
 13 14  2  0
 14 15  1  0
 15 16  2  0
 16 17  1  0
 17 18  2  0
 18 19  1  0
 19 20  2  0
 14 21  1  0
 21 22  2  0
 22 23  1  0
 23 24  2  0
 24 25  1  0
 25 26  2  0
 26 27  1  0
 27 28  1  0
 28 29  2  0
 29 30  1  0
 30 31  2  0
 31 32  1  0
 32 33  2  0
 26 34  1  0
 34 35  2  0
  5 36  1  0
 36 37  1  0
 37  2  1  0
 10  6  1  0
 22 11  1  0
 35 23  1  0
 20 15  1  0
 33 28  1  0
M  END
>  <Title>  (938) 
idABKBgen7

$$$$

     RDKit          2D

 38 43  0  0  0  0  0  0  0  0999 V2000
    3.0000    0.0000    0.0000 C   0  0  0  0  0  0  0  0  0  0  0  0
    1.5000    0.0000    0.0000 C   0  0  0  0  0  0  0  0  0  0  0  0
    0.7500   -1.2990    0.0000 C   0  0  0  0  0  0  0  0  0  0  0  0
   -0.7500   -1.2990    0.0000 C   0  0  0  0  0  0  0  0  0  0  0  0
   -1.5000    0.0000    0.0000 C   0  0  0  0  0  0  0  0  0  0  0  0
   -3.0000    0.0000    0.0000 C   0  0  0  0  0  0  0  0  0  0  0  0
   -3.8817   -1.2135    0.0000 N   0  0  0  0  0  0  0  0  0  0  0  0
   -5.3083   -0.7500    0.0000 N   0  0  0  0  0  0  0  0  0  0  0  0
   -5.3083    0.7500    0.0000 N   0  0  0  0  0  0  0  0  0  0  0  0
   -3.8817    1.2135    0.0000 N   0  0  0  0  0  0  0  0  0  0  0  0
   -3.4182    2.6401    0.0000 C   0  0  0  0  0  0  0  0  0  0  0  0
   -1.9509    2.9520    0.0000 C   0  0  0  0  0  0  0  0  0  0  0  0
   -1.4874    4.3786    0.0000 C   0  0  0  0  0  0  0  0  0  0  0  0
   -2.4911    5.4933    0.0000 C   0  0  0  0  0  0  0  0  0  0  0  0
   -2.0276    6.9199    0.0000 C   0  0  0  0  0  0  0  0  0  0  0  0
   -0.5604    7.2317    0.0000 C   0  0  0  0  0  0  0  0  0  0  0  0
   -0.0968    8.6583    0.0000 C   0  0  0  0  0  0  0  0  0  0  0  0
   -1.1005    9.7730    0.0000 C   0  0  0  0  0  0  0  0  0  0  0  0
   -2.5677    9.4612    0.0000 C   0  0  0  0  0  0  0  0  0  0  0  0
   -3.0313    8.0346    0.0000 C   0  0  0  0  0  0  0  0  0  0  0  0
   -3.9583    5.1814    0.0000 C   0  0  0  0  0  0  0  0  0  0  0  0
   -4.4218    3.7548    0.0000 C   0  0  0  0  0  0  0  0  0  0  0  0
   -5.8891    3.4430    0.0000 N   0  0  0  0  0  0  0  0  0  0  0  0
   -6.3526    2.0164    0.0000 N   0  0  0  0  0  0  0  0  0  0  0  0
   -7.8198    1.7045    0.0000 N   0  0  0  0  0  0  0  0  0  0  0  0
   -8.8235    2.8192    0.0000 N   0  0  0  0  0  0  0  0  0  0  0  0
   -8.3600    4.2458    0.0000 N   0  0  0  0  0  0  0  0  0  0  0  0
   -6.8928    4.5577    0.0000 N   0  0  0  0  0  0  0  0  0  0  0  0
   -6.4292    5.9843    0.0000 C   0  0  0  0  0  0  0  0  0  0  0  0
   -4.9620    6.2961    0.0000 C   0  0  0  0  0  0  0  0  0  0  0  0
   -4.4985    7.7227    0.0000 C   0  0  0  0  0  0  0  0  0  0  0  0
   -5.5022    8.8374    0.0000 C   0  0  0  0  0  0  0  0  0  0  0  0
   -5.0387   10.2640    0.0000 C   0  0  0  0  0  0  0  0  0  0  0  0
   -6.9694    8.5256    0.0000 C   0  0  0  0  0  0  0  0  0  0  0  0
   -7.9731    9.6403    0.0000 O   0  0  0  0  0  0  0  0  0  0  0  0
   -7.4329    7.0990    0.0000 N   0  0  0  0  0  0  0  0  0  0  0  0
   -0.7500    1.2990    0.0000 N   0  0  0  0  0  0  0  0  0  0  0  0
    0.7500    1.2990    0.0000 N   0  0  0  0  0  0  0  0  0  0  0  0
  1  2  1  0
  2  3  2  0
  3  4  1  0
  4  5  2  0
  5  6  1  0
  6  7  2  0
  7  8  1  0
  8  9  2  0
  9 10  1  0
 10 11  1  0
 11 12  2  0
 12 13  1  0
 13 14  2  0
 14 15  1  0
 15 16  2  0
 16 17  1  0
 17 18  2  0
 18 19  1  0
 19 20  2  0
 14 21  1  0
 21 22  2  0
 22 23  1  0
 23 24  1  0
 24 25  2  0
 25 26  1  0
 26 27  2  0
 27 28  1  0
 28 29  1  0
 29 30  2  0
 30 31  1  0
 31 32  2  0
 32 33  1  0
 32 34  1  0
 34 35  2  0
 34 36  1  0
  5 37  1  0
 37 38  2  0
 38  2  1  0
 10  6  1  0
 22 11  1  0
 28 23  1  0
 36 29  1  0
 20 15  1  0
M  END
>  <Title>  (939) 
idABKCgen7

$$$$

     RDKit          2D

 21 23  0  0  0  0  0  0  0  0999 V2000
    3.0000    0.0000    0.0000 C   0  0  0  0  0  0  0  0  0  0  0  0
    1.5000    0.0000    0.0000 C   0  0  0  0  0  0  0  0  0  0  0  0
    0.7500    1.2990    0.0000 C   0  0  0  0  0  0  0  0  0  0  0  0
   -0.7500    1.2990    0.0000 C   0  0  0  0  0  0  0  0  0  0  0  0
   -1.5000    0.0000    0.0000 C   0  0  0  0  0  0  0  0  0  0  0  0
   -3.0000    0.0000    0.0000 C   0  0  0  0  0  0  0  0  0  0  0  0
   -3.8817   -1.2135    0.0000 N   0  0  0  0  0  0  0  0  0  0  0  0
   -5.3083   -0.7500    0.0000 N   0  0  0  0  0  0  0  0  0  0  0  0
   -5.3083    0.7500    0.0000 N   0  0  0  0  0  0  0  0  0  0  0  0
   -3.8817    1.2135    0.0000 N   0  0  0  0  0  0  0  0  0  0  0  0
   -3.4182    2.6401    0.0000 C   0  0  0  0  0  0  0  0  0  0  0  0
   -1.9509    2.9520    0.0000 C   0  0  0  0  0  0  0  0  0  0  0  0
   -1.4874    4.3786    0.0000 C   0  0  0  0  0  0  0  0  0  0  0  0
   -2.4911    5.4933    0.0000 C   0  0  0  0  0  0  0  0  0  0  0  0
   -2.0276    6.9199    0.0000 C   0  0  0  0  0  0  0  0  0  0  0  0
   -3.9583    5.1814    0.0000 C   0  0  0  0  0  0  0  0  0  0  0  0
   -4.9620    6.2961    0.0000 O   0  0  0  0  0  0  0  0  0  0  0  0
   -4.4218    3.7548    0.0000 N   0  0  0  0  0  0  0  0  0  0  0  0
   -0.7500   -1.2990    0.0000 C   0  0  0  0  0  0  0  0  0  0  0  0
   -1.5000   -2.5981    0.0000 O   0  0  0  0  0  0  0  0  0  0  0  0
    0.7500   -1.2990    0.0000 N   0  0  0  0  0  0  0  0  0  0  0  0
  1  2  1  0
  2  3  2  0
  3  4  1  0
  4  5  2  0
  5  6  1  0
  6  7  2  0
  7  8  1  0
  8  9  2  0
  9 10  1  0
 10 11  1  0
 11 12  2  0
 12 13  1  0
 13 14  2  0
 14 15  1  0
 14 16  1  0
 16 17  2  0
 16 18  1  0
  5 19  1  0
 19 20  2  0
 19 21  1  0
 21  2  1  0
 10  6  1  0
 18 11  1  0
M  END
>  <Title>  (940) 
idABKDgen7

$$$$

     RDKit          2D

 41 46  0  0  0  0  0  0  0  0999 V2000
    3.0000    0.0000    0.0000 C   0  0  0  0  0  0  0  0  0  0  0  0
    1.5000    0.0000    0.0000 C   0  0  0  0  0  0  0  0  0  0  0  0
    0.7500    1.2990    0.0000 C   0  0  0  0  0  0  0  0  0  0  0  0
   -0.7500    1.2990    0.0000 C   0  0  0  0  0  0  0  0  0  0  0  0
   -1.5000    0.0000    0.0000 C   0  0  0  0  0  0  0  0  0  0  0  0
   -3.0000    0.0000    0.0000 C   0  0  0  0  0  0  0  0  0  0  0  0
   -3.8817   -1.2135    0.0000 N   0  0  0  0  0  0  0  0  0  0  0  0
   -5.3083   -0.7500    0.0000 N   0  0  0  0  0  0  0  0  0  0  0  0
   -5.3083    0.7500    0.0000 N   0  0  0  0  0  0  0  0  0  0  0  0
   -3.8817    1.2135    0.0000 N   0  0  0  0  0  0  0  0  0  0  0  0
   -3.4182    2.6401    0.0000 C   0  0  0  0  0  0  0  0  0  0  0  0
   -1.9509    2.9520    0.0000 C   0  0  0  0  0  0  0  0  0  0  0  0
   -1.4874    4.3786    0.0000 C   0  0  0  0  0  0  0  0  0  0  0  0
   -2.4911    5.4933    0.0000 C   0  0  0  0  0  0  0  0  0  0  0  0
   -2.0276    6.9199    0.0000 C   0  0  0  0  0  0  0  0  0  0  0  0
   -3.0313    8.0346    0.0000 O   0  0  0  0  0  0  0  0  0  0  0  0
   -0.5604    7.2317    0.0000 N   0  0  0  0  0  0  0  0  0  0  0  0
   -0.0968    8.6583    0.0000 C   0  0  0  0  0  0  0  0  0  0  0  0
    1.3704    8.9702    0.0000 C   0  0  0  0  0  0  0  0  0  0  0  0
    1.8339   10.3968    0.0000 C   0  0  0  0  0  0  0  0  0  0  0  0
    0.8302   11.5115    0.0000 C   0  0  0  0  0  0  0  0  0  0  0  0
    1.2937   12.9381    0.0000 C   0  0  0  0  0  0  0  0  0  0  0  0
    2.7610   13.2499    0.0000 C   0  0  0  0  0  0  0  0  0  0  0  0
    3.2245   14.6765    0.0000 C   0  0  0  0  0  0  0  0  0  0  0  0
    2.2208   15.7912    0.0000 C   0  0  0  0  0  0  0  0  0  0  0  0
    0.7536   15.4794    0.0000 C   0  0  0  0  0  0  0  0  0  0  0  0
    0.2901   14.0528    0.0000 C   0  0  0  0  0  0  0  0  0  0  0  0
   -0.6370   11.1996    0.0000 C   0  0  0  0  0  0  0  0  0  0  0  0
   -1.1005    9.7730    0.0000 C   0  0  0  0  0  0  0  0  0  0  0  0
   -3.9583    5.1814    0.0000 C   0  0  0  0  0  0  0  0  0  0  0  0
   -4.4218    3.7548    0.0000 C   0  0  0  0  0  0  0  0  0  0  0  0
   -5.8891    3.4430    0.0000 C   0  0  0  0  0  0  0  0  0  0  0  0
   -6.4992    2.0726    0.0000 C   0  0  0  0  0  0  0  0  0  0  0  0
   -7.9910    2.2294    0.0000 C   0  0  0  0  0  0  0  0  0  0  0  0
   -8.3028    3.6967    0.0000 C   0  0  0  0  0  0  0  0  0  0  0  0
   -9.6731    4.3068    0.0000 C   0  0  0  0  0  0  0  0  0  0  0  0
   -7.0038    4.4467    0.0000 C   0  0  0  0  0  0  0  0  0  0  0  0
   -6.8470    5.9384    0.0000 O   0  0  0  0  0  0  0  0  0  0  0  0
   -0.7500   -1.2990    0.0000 C   0  0  0  0  0  0  0  0  0  0  0  0
   -1.5000   -2.5981    0.0000 O   0  0  0  0  0  0  0  0  0  0  0  0
    0.7500   -1.2990    0.0000 N   0  0  0  0  0  0  0  0  0  0  0  0
  1  2  1  0
  2  3  2  0
  3  4  1  0
  4  5  2  0
  5  6  1  0
  6  7  2  0
  7  8  1  0
  8  9  2  0
  9 10  1  0
 10 11  1  0
 11 12  2  0
 12 13  1  0
 13 14  2  0
 14 15  1  0
 15 16  2  0
 15 17  1  0
 17 18  1  0
 18 19  2  0
 19 20  1  0
 20 21  2  0
 21 22  1  0
 22 23  2  0
 23 24  1  0
 24 25  2  0
 25 26  1  0
 26 27  2  0
 21 28  1  0
 28 29  2  0
 14 30  1  0
 30 31  2  0
 31 32  1  0
 32 33  2  0
 33 34  1  0
 34 35  2  0
 35 36  1  0
 35 37  1  0
 37 38  2  0
  5 39  1  0
 39 40  2  0
 39 41  1  0
 41  2  1  0
 10  6  1  0
 31 11  1  0
 37 32  1  0
 29 18  1  0
 27 22  1  0
M  END
>  <Title>  (941) 
idABKEgen7

$$$$

     RDKit          2D

 45 51  0  0  0  0  0  0  0  0999 V2000
    3.7500   -1.2990    0.0000 C   0  0  0  0  0  0  0  0  0  0  0  0
    3.0000    0.0000    0.0000 O   0  0  0  0  0  0  0  0  0  0  0  0
    1.5000    0.0000    0.0000 C   0  0  0  0  0  0  0  0  0  0  0  0
    0.7500   -1.2990    0.0000 C   0  0  0  0  0  0  0  0  0  0  0  0
   -0.7500   -1.2990    0.0000 C   0  0  0  0  0  0  0  0  0  0  0  0
   -1.5000    0.0000    0.0000 C   0  0  0  0  0  0  0  0  0  0  0  0
   -3.0000    0.0000    0.0000 C   0  0  0  0  0  0  0  0  0  0  0  0
   -3.8817   -1.2135    0.0000 N   0  0  0  0  0  0  0  0  0  0  0  0
   -5.3083   -0.7500    0.0000 N   0  0  0  0  0  0  0  0  0  0  0  0
   -5.3083    0.7500    0.0000 N   0  0  0  0  0  0  0  0  0  0  0  0
   -3.8817    1.2135    0.0000 N   0  0  0  0  0  0  0  0  0  0  0  0
   -3.4182    2.6401    0.0000 C   0  0  0  0  0  0  0  0  0  0  0  0
   -1.9509    2.9520    0.0000 C   0  0  0  0  0  0  0  0  0  0  0  0
   -1.4874    4.3786    0.0000 C   0  0  0  0  0  0  0  0  0  0  0  0
   -2.4911    5.4933    0.0000 C   0  0  0  0  0  0  0  0  0  0  0  0
   -2.0276    6.9199    0.0000 C   0  0  0  0  0  0  0  0  0  0  0  0
   -3.0313    8.0346    0.0000 O   0  0  0  0  0  0  0  0  0  0  0  0
   -0.5604    7.2317    0.0000 N   0  0  0  0  0  0  0  0  0  0  0  0
   -0.0968    8.6583    0.0000 C   0  0  0  0  0  0  0  0  0  0  0  0
   -0.9785    9.8718    0.0000 N   0  0  0  0  0  0  0  0  0  0  0  0
   -0.0968   11.0854    0.0000 N   0  0  0  0  0  0  0  0  0  0  0  0
    1.3298   10.6218    0.0000 N   0  0  0  0  0  0  0  0  0  0  0  0
    1.3298    9.1218    0.0000 N   0  0  0  0  0  0  0  0  0  0  0  0
    2.5433    8.2402    0.0000 C   0  0  0  0  0  0  0  0  0  0  0  0
    2.3865    6.7484    0.0000 C   0  0  0  0  0  0  0  0  0  0  0  0
    3.6000    5.8667    0.0000 C   0  0  0  0  0  0  0  0  0  0  0  0
    4.9703    6.4768    0.0000 C   0  0  0  0  0  0  0  0  0  0  0  0
    6.1839    5.5951    0.0000 C   0  0  0  0  0  0  0  0  0  0  0  0
    6.0271    4.1033    0.0000 C   0  0  0  0  0  0  0  0  0  0  0  0
    7.2406    3.2217    0.0000 C   0  0  0  0  0  0  0  0  0  0  0  0
    8.6109    3.8318    0.0000 C   0  0  0  0  0  0  0  0  0  0  0  0
    8.7677    5.3236    0.0000 C   0  0  0  0  0  0  0  0  0  0  0  0
    7.5542    6.2052    0.0000 C   0  0  0  0  0  0  0  0  0  0  0  0
    5.1271    7.9686    0.0000 C   0  0  0  0  0  0  0  0  0  0  0  0
    3.9136    8.8503    0.0000 C   0  0  0  0  0  0  0  0  0  0  0  0
    4.0704   10.3421    0.0000 C   0  0  0  0  0  0  0  0  0  0  0  0
    5.4407   10.9522    0.0000 C   0  0  0  0  0  0  0  0  0  0  0  0
    5.5975   12.4439    0.0000 C   0  0  0  0  0  0  0  0  0  0  0  0
    4.3840   13.3256    0.0000 C   0  0  0  0  0  0  0  0  0  0  0  0
    3.0137   12.7155    0.0000 C   0  0  0  0  0  0  0  0  0  0  0  0
    2.8569   11.2237    0.0000 C   0  0  0  0  0  0  0  0  0  0  0  0
   -3.9583    5.1814    0.0000 C   0  0  0  0  0  0  0  0  0  0  0  0
   -4.4218    3.7548    0.0000 C   0  0  0  0  0  0  0  0  0  0  0  0
   -0.7500    1.2990    0.0000 C   0  0  0  0  0  0  0  0  0  0  0  0
    0.7500    1.2990    0.0000 C   0  0  0  0  0  0  0  0  0  0  0  0
  1  2  1  0
  2  3  1  0
  3  4  2  0
  4  5  1  0
  5  6  2  0
  6  7  1  0
  7  8  2  0
  8  9  1  0
  9 10  2  0
 10 11  1  0
 11 12  1  0
 12 13  2  0
 13 14  1  0
 14 15  2  0
 15 16  1  0
 16 17  2  0
 16 18  1  0
 18 19  1  0
 19 20  2  0
 20 21  1  0
 21 22  2  0
 22 23  1  0
 23 24  1  0
 24 25  2  0
 25 26  1  0
 26 27  2  0
 27 28  1  0
 28 29  2  0
 29 30  1  0
 30 31  2  0
 31 32  1  0
 32 33  2  0
 27 34  1  0
 34 35  2  0
 35 36  1  0
 36 37  2  0
 37 38  1  0
 38 39  2  0
 39 40  1  0
 40 41  2  0
 15 42  1  0
 42 43  2  0
  6 44  1  0
 44 45  2  0
 45  3  1  0
 11  7  1  0
 43 12  1  0
 23 19  1  0
 35 24  1  0
 41 36  1  0
 33 28  1  0
M  END
>  <Title>  (942) 
idABKFgen7

$$$$

     RDKit          2D

 21 23  0  0  0  0  0  0  0  0999 V2000
    3.0000    0.0000    0.0000 C   0  0  0  0  0  0  0  0  0  0  0  0
    1.5000    0.0000    0.0000 C   0  0  0  0  0  0  0  0  0  0  0  0
    0.7500   -1.2990    0.0000 C   0  0  0  0  0  0  0  0  0  0  0  0
   -0.7500   -1.2990    0.0000 C   0  0  0  0  0  0  0  0  0  0  0  0
   -1.5000    0.0000    0.0000 C   0  0  0  0  0  0  0  0  0  0  0  0
   -3.0000    0.0000    0.0000 C   0  0  0  0  0  0  0  0  0  0  0  0
   -3.7500   -1.2990    0.0000 O   0  0  0  0  0  0  0  0  0  0  0  0
   -3.7500    1.2990    0.0000 N   0  0  0  0  0  0  0  0  0  0  0  0
   -5.2500    1.2990    0.0000 C   0  0  0  0  0  0  0  0  0  0  0  0
   -6.1317    0.0855    0.0000 N   0  0  0  0  0  0  0  0  0  0  0  0
   -7.5583    0.5490    0.0000 N   0  0  0  0  0  0  0  0  0  0  0  0
   -7.5583    2.0490    0.0000 N   0  0  0  0  0  0  0  0  0  0  0  0
   -6.1317    2.5126    0.0000 N   0  0  0  0  0  0  0  0  0  0  0  0
   -5.6682    3.9391    0.0000 C   0  0  0  0  0  0  0  0  0  0  0  0
   -4.2009    4.2510    0.0000 C   0  0  0  0  0  0  0  0  0  0  0  0
   -3.7374    5.6776    0.0000 C   0  0  0  0  0  0  0  0  0  0  0  0
   -4.7411    6.7923    0.0000 C   0  0  0  0  0  0  0  0  0  0  0  0
   -6.2083    6.4805    0.0000 C   0  0  0  0  0  0  0  0  0  0  0  0
   -6.6718    5.0539    0.0000 C   0  0  0  0  0  0  0  0  0  0  0  0
   -0.7500    1.2990    0.0000 C   0  0  0  0  0  0  0  0  0  0  0  0
    0.7500    1.2990    0.0000 C   0  0  0  0  0  0  0  0  0  0  0  0
  1  2  1  0
  2  3  2  0
  3  4  1  0
  4  5  2  0
  5  6  1  0
  6  7  2  0
  6  8  1  0
  8  9  1  0
  9 10  2  0
 10 11  1  0
 11 12  2  0
 12 13  1  0
 13 14  1  0
 14 15  2  0
 15 16  1  0
 16 17  2  0
 17 18  1  0
 18 19  2  0
  5 20  1  0
 20 21  2  0
 21  2  1  0
 13  9  1  0
 19 14  1  0
M  END
>  <Title>  (943) 
idABKGgen7

$$$$

     RDKit          2D

 12 13  0  0  0  0  0  0  0  0999 V2000
   -0.2487    5.6515    0.0000 O   0  0  0  0  0  0  0  0  0  0  0  0
    0.1935    4.2182    0.0000 C   0  0  0  0  0  0  0  0  0  0  0  0
    1.6559    3.8844    0.0000 C   0  0  0  0  0  0  0  0  0  0  0  0
    2.0980    2.4510    0.0000 C   0  0  0  0  0  0  0  0  0  0  0  0
    1.0777    1.3515    0.0000 C   0  0  0  0  0  0  0  0  0  0  0  0
    1.7286    0.0000    0.0000 C   0  0  0  0  0  0  0  0  0  0  0  0
    1.0777   -1.3515    0.0000 C   0  0  0  0  0  0  0  0  0  0  0  0
   -0.3846   -1.6852    0.0000 C   0  0  0  0  0  0  0  0  0  0  0  0
   -1.5574   -0.7500    0.0000 C   0  0  0  0  0  0  0  0  0  0  0  0
   -1.5574    0.7500    0.0000 C   0  0  0  0  0  0  0  0  0  0  0  0
   -0.3846    1.6852    0.0000 C   0  0  0  0  0  0  0  0  0  0  0  0
   -0.8268    3.1186    0.0000 N   0  0  0  0  0  0  0  0  0  0  0  0
  1  2  1  0
  2  3  2  0
  3  4  1  0
  4  5  2  0
  5  6  1  0
  6  7  2  0
  7  8  1  0
  8  9  2  0
  9 10  1  0
 10 11  2  0
 11 12  1  0
 12  2  1  0
 11  5  1  0
M  END
>  <Title>  (944) 
idABKHgen7

$$$$

     RDKit          2D

 32 36  0  0  0  0  0  0  0  0999 V2000
    3.0000    0.0000    0.0000 C   0  0  0  0  0  0  0  0  0  0  0  0
    1.5000    0.0000    0.0000 C   0  0  0  0  0  0  0  0  0  0  0  0
    0.7500    1.2990    0.0000 C   0  0  0  0  0  0  0  0  0  0  0  0
   -0.7500    1.2990    0.0000 C   0  0  0  0  0  0  0  0  0  0  0  0
   -1.5000    0.0000    0.0000 C   0  0  0  0  0  0  0  0  0  0  0  0
   -3.0000    0.0000    0.0000 C   0  0  0  0  0  0  0  0  0  0  0  0
   -3.8817   -1.2135    0.0000 N   0  0  0  0  0  0  0  0  0  0  0  0
   -5.3083   -0.7500    0.0000 N   0  0  0  0  0  0  0  0  0  0  0  0
   -5.3083    0.7500    0.0000 N   0  0  0  0  0  0  0  0  0  0  0  0
   -3.8817    1.2135    0.0000 N   0  0  0  0  0  0  0  0  0  0  0  0
   -3.4182    2.6401    0.0000 C   0  0  0  0  0  0  0  0  0  0  0  0
   -1.9509    2.9520    0.0000 C   0  0  0  0  0  0  0  0  0  0  0  0
   -1.4874    4.3786    0.0000 C   0  0  0  0  0  0  0  0  0  0  0  0
   -2.4911    5.4933    0.0000 C   0  0  0  0  0  0  0  0  0  0  0  0
   -2.0276    6.9199    0.0000 C   0  0  0  0  0  0  0  0  0  0  0  0
   -0.5604    7.2317    0.0000 C   0  0  0  0  0  0  0  0  0  0  0  0
   -0.0968    8.6583    0.0000 C   0  0  0  0  0  0  0  0  0  0  0  0
   -1.1005    9.7730    0.0000 C   0  0  0  0  0  0  0  0  0  0  0  0
   -0.6370   11.1996    0.0000 C   0  0  0  0  0  0  0  0  0  0  0  0
    0.8302   11.5115    0.0000 C   0  0  0  0  0  0  0  0  0  0  0  0
    1.2937   12.9381    0.0000 C   0  0  0  0  0  0  0  0  0  0  0  0
    0.2901   14.0528    0.0000 C   0  0  0  0  0  0  0  0  0  0  0  0
   -1.1772   13.7409    0.0000 C   0  0  0  0  0  0  0  0  0  0  0  0
   -1.6407   12.3143    0.0000 C   0  0  0  0  0  0  0  0  0  0  0  0
   -2.5677    9.4612    0.0000 C   0  0  0  0  0  0  0  0  0  0  0  0
   -3.0313    8.0346    0.0000 C   0  0  0  0  0  0  0  0  0  0  0  0
   -3.9583    5.1814    0.0000 C   0  0  0  0  0  0  0  0  0  0  0  0
   -4.9620    6.2961    0.0000 O   0  0  0  0  0  0  0  0  0  0  0  0
   -4.4218    3.7548    0.0000 N   0  0  0  0  0  0  0  0  0  0  0  0
   -0.7500   -1.2990    0.0000 C   0  0  0  0  0  0  0  0  0  0  0  0
   -1.5000   -2.5981    0.0000 O   0  0  0  0  0  0  0  0  0  0  0  0
    0.7500   -1.2990    0.0000 N   0  0  0  0  0  0  0  0  0  0  0  0
  1  2  1  0
  2  3  2  0
  3  4  1  0
  4  5  2  0
  5  6  1  0
  6  7  2  0
  7  8  1  0
  8  9  2  0
  9 10  1  0
 10 11  1  0
 11 12  2  0
 12 13  1  0
 13 14  2  0
 14 15  1  0
 15 16  2  0
 16 17  1  0
 17 18  2  0
 18 19  1  0
 19 20  2  0
 20 21  1  0
 21 22  2  0
 22 23  1  0
 23 24  2  0
 18 25  1  0
 25 26  2  0
 14 27  1  0
 27 28  2  0
 27 29  1  0
  5 30  1  0
 30 31  2  0
 30 32  1  0
 32  2  1  0
 10  6  1  0
 29 11  1  0
 26 15  1  0
 24 19  1  0
M  END
>  <Title>  (945) 
idABKIgen7

$$$$

     RDKit          2D

 55 63  0  0  0  0  0  0  0  0999 V2000
    1.0023   -0.3745    0.0000 C   0  0  0  0  0  0  0  0  0  0  0  0
    1.1069   -1.8709    0.0000 C   0  0  0  0  0  0  0  0  0  0  0  0
   -0.1367   -2.7096    0.0000 C   0  0  0  0  0  0  0  0  0  0  0  0
   -0.0320   -4.2060    0.0000 C   0  0  0  0  0  0  0  0  0  0  0  0
    1.3162   -4.8636    0.0000 C   0  0  0  0  0  0  0  0  0  0  0  0
    1.4208   -6.3599    0.0000 C   0  0  0  0  0  0  0  0  0  0  0  0
    2.6929   -7.1548    0.0000 N   0  0  0  0  0  0  0  0  0  0  0  0
    2.3300   -8.6102    0.0000 N   0  0  0  0  0  0  0  0  0  0  0  0
    0.8336   -8.7149    0.0000 N   0  0  0  0  0  0  0  0  0  0  0  0
    0.2717   -7.3241    0.0000 N   0  0  0  0  0  0  0  0  0  0  0  0
   -1.1837   -6.9612    0.0000 C   0  0  0  0  0  0  0  0  0  0  0  0
   -1.5972   -5.5193    0.0000 C   0  0  0  0  0  0  0  0  0  0  0  0
   -3.0526   -5.1564    0.0000 C   0  0  0  0  0  0  0  0  0  0  0  0
   -4.0946   -6.2354    0.0000 C   0  0  0  0  0  0  0  0  0  0  0  0
   -5.5500   -5.8725    0.0000 C   0  0  0  0  0  0  0  0  0  0  0  0
   -6.6991   -6.8367    0.0000 N   0  0  0  0  0  0  0  0  0  0  0  0
   -7.9712   -6.0419    0.0000 N   0  0  0  0  0  0  0  0  0  0  0  0
   -7.6083   -4.5864    0.0000 N   0  0  0  0  0  0  0  0  0  0  0  0
   -6.1120   -4.4818    0.0000 N   0  0  0  0  0  0  0  0  0  0  0  0
   -5.3171   -3.2097    0.0000 C   0  0  0  0  0  0  0  0  0  0  0  0
   -6.2406   -2.0277    0.0000 C   0  0  0  0  0  0  0  0  0  0  0  0
   -6.1882   -0.5286    0.0000 C   0  0  0  0  0  0  0  0  0  0  0  0
   -5.1845    0.5861    0.0000 C   0  0  0  0  0  0  0  0  0  0  0  0
   -6.5089    1.2903    0.0000 C   0  0  0  0  0  0  0  0  0  0  0  0
   -7.1665    2.6385    0.0000 C   0  0  0  0  0  0  0  0  0  0  0  0
   -8.6519    2.4298    0.0000 C   0  0  0  0  0  0  0  0  0  0  0  0
   -9.2138    1.0390    0.0000 C   0  0  0  0  0  0  0  0  0  0  0  0
  -10.6992    0.8302    0.0000 C   0  0  0  0  0  0  0  0  0  0  0  0
  -11.6227    2.0122    0.0000 C   0  0  0  0  0  0  0  0  0  0  0  0
  -11.0608    3.4030    0.0000 C   0  0  0  0  0  0  0  0  0  0  0  0
   -9.5754    3.6118    0.0000 C   0  0  0  0  0  0  0  0  0  0  0  0
   -6.9060    4.1157    0.0000 C   0  0  0  0  0  0  0  0  0  0  0  0
   -5.8270    5.1577    0.0000 C   0  0  0  0  0  0  0  0  0  0  0  0
   -4.3416    5.3665    0.0000 C   0  0  0  0  0  0  0  0  0  0  0  0
   -3.0172    4.6623    0.0000 C   0  0  0  0  0  0  0  0  0  0  0  0
   -2.3596    3.3141    0.0000 C   0  0  0  0  0  0  0  0  0  0  0  0
   -2.6201    1.8369    0.0000 C   0  0  0  0  0  0  0  0  0  0  0  0
   -3.6991    0.7949    0.0000 C   0  0  0  0  0  0  0  0  0  0  0  0
   -2.4271    0.0000    0.0000 N   0  0  0  0  0  0  0  0  0  0  0  0
   -1.9635   -1.4266    0.0000 N   0  0  0  0  0  0  0  0  0  0  0  0
   -2.5254   -2.8174    0.0000 N   0  0  0  0  0  0  0  0  0  0  0  0
   -3.8499   -3.5216    0.0000 N   0  0  0  0  0  0  0  0  0  0  0  0
   -3.6811   -7.6773    0.0000 C   0  0  0  0  0  0  0  0  0  0  0  0
   -2.2257   -8.0402    0.0000 C   0  0  0  0  0  0  0  0  0  0  0  0
   -1.8122   -9.4821    0.0000 C   0  0  0  0  0  0  0  0  0  0  0  0
   -2.8542  -10.5611    0.0000 C   0  0  0  0  0  0  0  0  0  0  0  0
   -2.4408  -12.0030    0.0000 C   0  0  0  0  0  0  0  0  0  0  0  0
   -0.9853  -12.3659    0.0000 C   0  0  0  0  0  0  0  0  0  0  0  0
   -0.5719  -13.8078    0.0000 C   0  0  0  0  0  0  0  0  0  0  0  0
    0.0567  -11.2869    0.0000 C   0  0  0  0  0  0  0  0  0  0  0  0
    1.5121  -11.6498    0.0000 O   0  0  0  0  0  0  0  0  0  0  0  0
   -0.3568   -9.8450    0.0000 N   0  0  0  0  0  0  0  0  0  0  0  0
    2.5597   -4.0248    0.0000 C   0  0  0  0  0  0  0  0  0  0  0  0
    3.9079   -4.6823    0.0000 O   0  0  0  0  0  0  0  0  0  0  0  0
    2.4551   -2.5284    0.0000 O   0  0  0  0  0  0  0  0  0  0  0  0
  1  2  1  0
  2  3  2  0
  3  4  1  0
  4  5  2  0
  5  6  1  0
  6  7  2  0
  7  8  1  0
  8  9  2  0
  9 10  1  0
 10 11  1  0
 11 12  2  0
 12 13  1  0
 13 14  2  0
 14 15  1  0
 15 16  2  0
 16 17  1  0
 17 18  2  0
 18 19  1  0
 19 20  1  0
 20 21  2  0
 21 22  1  0
 22 23  2  0
 23 24  1  0
 24 25  2  0
 25 26  1  0
 26 27  2  0
 27 28  1  0
 28 29  2  0
 29 30  1  0
 30 31  2  0
 25 32  1  0
 32 33  2  0
 33 34  1  0
 34 35  2  0
 35 36  1  0
 36 37  2  0
 37 38  1  0
 38 39  2  0
 39 40  1  0
 40 41  2  0
 41 42  1  0
 14 43  1  0
 43 44  2  0
 44 45  1  0
 45 46  2  0
 46 47  1  0
 47 48  2  0
 48 49  1  0
 48 50  1  0
 50 51  2  0
 50 52  1  0
  5 53  1  0
 53 54  2  0
 53 55  1  0
 55  2  1  0
 10  6  1  0
 44 11  1  0
 52 45  1  0
 19 15  1  0
 42 20  1  0
 38 23  1  0
 31 26  1  0
 42 32  1  0
M  END
>  <Title>  (946) 
idABKJgen7

$$$$

     RDKit          2D

 54 61  0  0  0  0  0  0  0  0999 V2000
    6.0000   -2.5981    0.0000 C   0  0  0  0  0  0  0  0  0  0  0  0
    5.2500   -1.2990    0.0000 C   0  0  0  0  0  0  0  0  0  0  0  0
    6.0000    0.0000    0.0000 O   0  0  0  0  0  0  0  0  0  0  0  0
    3.7500   -1.2990    0.0000 N   0  0  0  0  0  0  0  0  0  0  0  0
    3.0000    0.0000    0.0000 C   0  0  0  0  0  0  0  0  0  0  0  0
    3.7500    1.2990    0.0000 O   0  0  0  0  0  0  0  0  0  0  0  0
    1.5000    0.0000    0.0000 C   0  0  0  0  0  0  0  0  0  0  0  0
    0.7500   -1.2990    0.0000 C   0  0  0  0  0  0  0  0  0  0  0  0
   -0.7500   -1.2990    0.0000 C   0  0  0  0  0  0  0  0  0  0  0  0
   -1.5000    0.0000    0.0000 C   0  0  0  0  0  0  0  0  0  0  0  0
   -3.0000    0.0000    0.0000 C   0  0  0  0  0  0  0  0  0  0  0  0
   -3.7500    1.2990    0.0000 C   0  0  0  0  0  0  0  0  0  0  0  0
   -5.2500    1.2990    0.0000 C   0  0  0  0  0  0  0  0  0  0  0  0
   -6.1317    0.0855    0.0000 N   0  0  0  0  0  0  0  0  0  0  0  0
   -7.5583    0.5490    0.0000 N   0  0  0  0  0  0  0  0  0  0  0  0
   -7.5583    2.0490    0.0000 N   0  0  0  0  0  0  0  0  0  0  0  0
   -6.1317    2.5126    0.0000 N   0  0  0  0  0  0  0  0  0  0  0  0
   -5.6682    3.9391    0.0000 C   0  0  0  0  0  0  0  0  0  0  0  0
   -4.2009    4.2510    0.0000 C   0  0  0  0  0  0  0  0  0  0  0  0
   -3.7374    5.6776    0.0000 C   0  0  0  0  0  0  0  0  0  0  0  0
   -4.7411    6.7923    0.0000 C   0  0  0  0  0  0  0  0  0  0  0  0
   -4.2776    8.2189    0.0000 C   0  0  0  0  0  0  0  0  0  0  0  0
   -5.1593    9.4324    0.0000 N   0  0  0  0  0  0  0  0  0  0  0  0
   -4.2776   10.6460    0.0000 N   0  0  0  0  0  0  0  0  0  0  0  0
   -2.8510   10.1824    0.0000 N   0  0  0  0  0  0  0  0  0  0  0  0
   -2.8510    8.6824    0.0000 N   0  0  0  0  0  0  0  0  0  0  0  0
   -1.6375    7.8008    0.0000 C   0  0  0  0  0  0  0  0  0  0  0  0
   -1.7943    6.3090    0.0000 C   0  0  0  0  0  0  0  0  0  0  0  0
   -0.5807    5.4273    0.0000 C   0  0  0  0  0  0  0  0  0  0  0  0
    0.7896    6.0374    0.0000 C   0  0  0  0  0  0  0  0  0  0  0  0
    2.0031    5.1557    0.0000 C   0  0  0  0  0  0  0  0  0  0  0  0
    1.8463    3.6639    0.0000 C   0  0  0  0  0  0  0  0  0  0  0  0
    3.0598    2.7823    0.0000 C   0  0  0  0  0  0  0  0  0  0  0  0
    4.4302    3.3924    0.0000 C   0  0  0  0  0  0  0  0  0  0  0  0
    4.5870    4.8841    0.0000 C   0  0  0  0  0  0  0  0  0  0  0  0
    3.3734    5.7658    0.0000 C   0  0  0  0  0  0  0  0  0  0  0  0
    0.9464    7.5292    0.0000 C   0  0  0  0  0  0  0  0  0  0  0  0
   -0.2671    8.4109    0.0000 C   0  0  0  0  0  0  0  0  0  0  0  0
   -0.1104    9.9026    0.0000 N   0  0  0  0  0  0  0  0  0  0  0  0
   -1.3239   10.7843    0.0000 N   0  0  0  0  0  0  0  0  0  0  0  0
   -1.1671   12.2761    0.0000 N   0  0  0  0  0  0  0  0  0  0  0  0
    0.2032   12.8862    0.0000 N   0  0  0  0  0  0  0  0  0  0  0  0
    1.4168   12.0045    0.0000 N   0  0  0  0  0  0  0  0  0  0  0  0
    1.2600   10.5127    0.0000 N   0  0  0  0  0  0  0  0  0  0  0  0
    2.4735    9.6311    0.0000 C   0  0  0  0  0  0  0  0  0  0  0  0
    3.8438   10.2412    0.0000 C   0  0  0  0  0  0  0  0  0  0  0  0
    5.0573    9.3595    0.0000 C   0  0  0  0  0  0  0  0  0  0  0  0
    4.9005    7.8677    0.0000 C   0  0  0  0  0  0  0  0  0  0  0  0
    3.5302    7.2576    0.0000 C   0  0  0  0  0  0  0  0  0  0  0  0
    2.3167    8.1393    0.0000 C   0  0  0  0  0  0  0  0  0  0  0  0
   -6.2083    6.4805    0.0000 C   0  0  0  0  0  0  0  0  0  0  0  0
   -6.6718    5.0539    0.0000 C   0  0  0  0  0  0  0  0  0  0  0  0
   -0.7500    1.2990    0.0000 C   0  0  0  0  0  0  0  0  0  0  0  0
    0.7500    1.2990    0.0000 C   0  0  0  0  0  0  0  0  0  0  0  0
  1  2  1  0
  2  3  2  0
  2  4  1  0
  4  5  1  0
  5  6  2  0
  5  7  1  0
  7  8  1  0
  8  9  2  0
  9 10  1  0
 10 11  1  0
 11 12  1  0
 12 13  1  0
 13 14  2  0
 14 15  1  0
 15 16  2  0
 16 17  1  0
 17 18  1  0
 18 19  2  0
 19 20  1  0
 20 21  2  0
 21 22  1  0
 22 23  2  0
 23 24  1  0
 24 25  2  0
 25 26  1  0
 26 27  1  0
 27 28  2  0
 28 29  1  0
 29 30  2  0
 30 31  1  0
 31 32  2  0
 32 33  1  0
 33 34  2  0
 34 35  1  0
 35 36  2  0
 30 37  1  0
 37 38  2  0
 38 39  1  0
 39 40  1  0
 40 41  2  0
 41 42  1  0
 42 43  2  0
 43 44  1  0
 44 45  1  0
 45 46  2  0
 46 47  1  0
 47 48  2  0
 48 49  1  0
 49 50  2  0
 21 51  1  0
 51 52  2  0
 10 53  2  0
 53 54  1  0
 54  7  1  0
 17 13  1  0
 52 18  1  0
 26 22  1  0
 38 27  1  0
 44 39  1  0
 50 45  1  0
 36 31  1  0
M  END
>  <Title>  (947) 
idABKKgen7

$$$$

     RDKit          2D

 14 15  0  0  0  0  0  0  0  0999 V2000
    2.7516    6.1053    0.0000 C   0  0  0  0  0  0  0  0  0  0  0  0
    1.8836    4.8820    0.0000 C   0  0  0  0  0  0  0  0  0  0  0  0
    2.6816    3.6119    0.0000 C   0  0  0  0  0  0  0  0  0  0  0  0
    2.3478    2.1495    0.0000 C   0  0  0  0  0  0  0  0  0  0  0  0
    1.0777    1.3515    0.0000 C   0  0  0  0  0  0  0  0  0  0  0  0
    1.7286    0.0000    0.0000 C   0  0  0  0  0  0  0  0  0  0  0  0
    1.0777   -1.3515    0.0000 C   0  0  0  0  0  0  0  0  0  0  0  0
   -0.3846   -1.6852    0.0000 C   0  0  0  0  0  0  0  0  0  0  0  0
   -1.5574   -0.7500    0.0000 C   0  0  0  0  0  0  0  0  0  0  0  0
   -1.5574    0.7500    0.0000 C   0  0  0  0  0  0  0  0  0  0  0  0
   -0.3846    1.6852    0.0000 C   0  0  0  0  0  0  0  0  0  0  0  0
   -1.1827    2.9553    0.0000 C   0  0  0  0  0  0  0  0  0  0  0  0
   -0.8489    4.4177    0.0000 C   0  0  0  0  0  0  0  0  0  0  0  0
    0.4212    5.2158    0.0000 C   0  0  0  0  0  0  0  0  0  0  0  0
  1  2  1  0
  2  3  2  0
  3  4  1  0
  4  5  2  0
  5  6  1  0
  6  7  2  0
  7  8  1  0
  8  9  2  0
  9 10  1  0
 10 11  2  0
 11 12  1  0
 12 13  1  0
 13 14  2  0
 14  2  1  0
 11  5  1  0
M  END
>  <Title>  (948) 
idABKLgen7

$$$$

     RDKit          2D

 16 16  0  0  0  0  0  0  0  0999 V2000
    5.7098   -1.2990    0.0000 C   0  0  0  0  0  0  0  0  0  0  0  0
    4.2098   -1.2990    0.0000 C   0  0  0  0  0  0  0  0  0  0  0  0
    3.4598   -2.5981    0.0000 O   0  0  0  0  0  0  0  0  0  0  0  0
    3.4598   -0.0000    0.0000 O   0  0  0  0  0  0  0  0  0  0  0  0
    1.9598    0.0000    0.0000 C   0  0  0  0  0  0  0  0  0  0  0  0
    1.3858   -1.3858    0.0000 C   0  0  0  0  0  0  0  0  0  0  0  0
   -0.0000   -1.9598    0.0000 C   0  0  0  0  0  0  0  0  0  0  0  0
   -1.3858   -1.3858    0.0000 C   0  0  0  0  0  0  0  0  0  0  0  0
   -1.9598    0.0000    0.0000 C   0  0  0  0  0  0  0  0  0  0  0  0
   -3.4598    0.0000    0.0000 O   0  0  0  0  0  0  0  0  0  0  0  0
   -1.3858    1.3858    0.0000 C   0  0  0  0  0  0  0  0  0  0  0  0
   -2.4465    2.4465    0.0000 O   0  0  0  0  0  0  0  0  0  0  0  0
    0.0000    1.9598    0.0000 C   0  0  0  0  0  0  0  0  0  0  0  0
    0.0000    3.4598    0.0000 O   0  0  0  0  0  0  0  0  0  0  0  0
    1.3858    1.3858    0.0000 C   0  0  0  0  0  0  0  0  0  0  0  0
    2.4465    2.4465    0.0000 O   0  0  0  0  0  0  0  0  0  0  0  0
  1  2  1  0
  2  3  2  0
  2  4  1  0
  4  5  1  0
  5  6  2  0
  6  7  1  0
  7  8  2  0
  8  9  2  0
  9 10  1  0
  9 11  1  0
 11 12  1  0
 11 13  1  0
 13 14  1  0
 13 15  1  0
 15 16  1  0
 15  5  1  0
M  END
>  <Title>  (949) 
idABKMgen7

$$$$

     RDKit          2D

 57 65  0  0  0  0  0  0  0  0999 V2000
    7.5646   -0.1148    0.0000 C   0  0  0  0  0  0  0  0  0  0  0  0
    6.0974   -0.4266    0.0000 C   0  0  0  0  0  0  0  0  0  0  0  0
    4.9826    0.5771    0.0000 C   0  0  0  0  0  0  0  0  0  0  0  0
    3.6836   -0.1729    0.0000 C   0  0  0  0  0  0  0  0  0  0  0  0
    3.9955   -1.6402    0.0000 C   0  0  0  0  0  0  0  0  0  0  0  0
    2.9918   -2.7549    0.0000 C   0  0  0  0  0  0  0  0  0  0  0  0
    3.3037   -4.2221    0.0000 N   0  0  0  0  0  0  0  0  0  0  0  0
    2.0046   -4.9721    0.0000 N   0  0  0  0  0  0  0  0  0  0  0  0
    0.8899   -3.9684    0.0000 N   0  0  0  0  0  0  0  0  0  0  0  0
    1.5000   -2.5981    0.0000 N   0  0  0  0  0  0  0  0  0  0  0  0
    0.7500   -1.2990    0.0000 C   0  0  0  0  0  0  0  0  0  0  0  0
    1.5000    0.0000    0.0000 C   0  0  0  0  0  0  0  0  0  0  0  0
    0.7500    1.2990    0.0000 C   0  0  0  0  0  0  0  0  0  0  0  0
   -0.7500    1.2990    0.0000 C   0  0  0  0  0  0  0  0  0  0  0  0
   -1.5000    2.5981    0.0000 O   0  0  0  0  0  0  0  0  0  0  0  0
   -0.7500    3.8971    0.0000 C   0  0  0  0  0  0  0  0  0  0  0  0
   -1.5000    5.1962    0.0000 C   0  0  0  0  0  0  0  0  0  0  0  0
   -3.0000    5.1962    0.0000 O   0  0  0  0  0  0  0  0  0  0  0  0
   -0.7500    6.4952    0.0000 N   0  0  0  0  0  0  0  0  0  0  0  0
   -1.5000    7.7942    0.0000 C   0  0  0  0  0  0  0  0  0  0  0  0
   -0.7500    9.0933    0.0000 C   0  0  0  0  0  0  0  0  0  0  0  0
   -1.5000   10.3923    0.0000 C   0  0  0  0  0  0  0  0  0  0  0  0
   -3.0000   10.3923    0.0000 C   0  0  0  0  0  0  0  0  0  0  0  0
   -3.7500   11.6913    0.0000 C   0  0  0  0  0  0  0  0  0  0  0  0
   -3.0000   12.9904    0.0000 C   0  0  0  0  0  0  0  0  0  0  0  0
   -3.7500   14.2894    0.0000 C   0  0  0  0  0  0  0  0  0  0  0  0
   -5.2500   14.2894    0.0000 C   0  0  0  0  0  0  0  0  0  0  0  0
   -6.0000   12.9904    0.0000 C   0  0  0  0  0  0  0  0  0  0  0  0
   -5.2500   11.6913    0.0000 C   0  0  0  0  0  0  0  0  0  0  0  0
   -3.7500    9.0933    0.0000 C   0  0  0  0  0  0  0  0  0  0  0  0
   -3.0000    7.7942    0.0000 C   0  0  0  0  0  0  0  0  0  0  0  0
   -1.5000    0.0000    0.0000 C   0  0  0  0  0  0  0  0  0  0  0  0
   -0.7500   -1.2990    0.0000 C   0  0  0  0  0  0  0  0  0  0  0  0
   -1.5000   -2.5981    0.0000 C   0  0  0  0  0  0  0  0  0  0  0  0
   -0.8899   -3.9684    0.0000 N   0  0  0  0  0  0  0  0  0  0  0  0
   -2.0046   -4.9721    0.0000 N   0  0  0  0  0  0  0  0  0  0  0  0
   -3.3037   -4.2221    0.0000 N   0  0  0  0  0  0  0  0  0  0  0  0
   -2.9918   -2.7549    0.0000 N   0  0  0  0  0  0  0  0  0  0  0  0
   -3.9955   -1.6402    0.0000 C   0  0  0  0  0  0  0  0  0  0  0  0
   -5.4873   -1.7969    0.0000 C   0  0  0  0  0  0  0  0  0  0  0  0
   -6.0974   -0.4266    0.0000 C   0  0  0  0  0  0  0  0  0  0  0  0
   -4.9826    0.5771    0.0000 C   0  0  0  0  0  0  0  0  0  0  0  0
   -5.1394    2.0689    0.0000 C   0  0  0  0  0  0  0  0  0  0  0  0
   -3.9259    2.9505    0.0000 C   0  0  0  0  0  0  0  0  0  0  0  0
   -4.0827    4.4423    0.0000 C   0  0  0  0  0  0  0  0  0  0  0  0
   -5.4530    5.0524    0.0000 C   0  0  0  0  0  0  0  0  0  0  0  0
   -5.6098    6.5442    0.0000 C   0  0  0  0  0  0  0  0  0  0  0  0
   -4.3963    7.4259    0.0000 C   0  0  0  0  0  0  0  0  0  0  0  0
   -4.5531    8.9177    0.0000 C   0  0  0  0  0  0  0  0  0  0  0  0
   -5.9234    9.5278    0.0000 C   0  0  0  0  0  0  0  0  0  0  0  0
   -7.1369    8.6461    0.0000 C   0  0  0  0  0  0  0  0  0  0  0  0
   -6.9801    7.1543    0.0000 C   0  0  0  0  0  0  0  0  0  0  0  0
   -6.6666    4.1707    0.0000 C   0  0  0  0  0  0  0  0  0  0  0  0
   -6.5098    2.6790    0.0000 C   0  0  0  0  0  0  0  0  0  0  0  0
   -3.6836   -0.1729    0.0000 C   0  0  0  0  0  0  0  0  0  0  0  0
   -2.3133    0.4372    0.0000 O   0  0  0  0  0  0  0  0  0  0  0  0
    5.4873   -1.7969    0.0000 N   0  0  0  0  0  0  0  0  0  0  0  0
  1  2  1  0
  2  3  2  0
  3  4  1  0
  4  5  2  0
  5  6  1  0
  6  7  2  0
  7  8  1  0
  8  9  2  0
  9 10  1  0
 10 11  1  0
 11 12  2  0
 12 13  1  0
 13 14  2  0
 14 15  1  0
 15 16  1  0
 16 17  1  0
 17 18  2  0
 17 19  1  0
 19 20  1  0
 20 21  2  0
 21 22  1  0
 22 23  2  0
 23 24  1  0
 24 25  2  0
 25 26  1  0
 26 27  2  0
 27 28  1  0
 28 29  2  0
 23 30  1  0
 30 31  2  0
 14 32  1  0
 32 33  2  0
 33 34  1  0
 34 35  2  0
 35 36  1  0
 36 37  2  0
 37 38  1  0
 38 39  1  0
 39 40  2  0
 40 41  1  0
 41 42  2  0
 42 43  1  0
 43 44  2  0
 44 45  1  0
 45 46  2  0
 46 47  1  0
 47 48  2  0
 48 49  1  0
 49 50  2  0
 50 51  1  0
 51 52  2  0
 46 53  1  0
 53 54  2  0
 42 55  1  0
 55 56  2  0
  5 57  1  0
 57  2  1  0
 10  6  1  0
 33 11  1  0
 38 34  1  0
 55 39  1  0
 31 20  1  0
 54 43  1  0
 29 24  1  0
 52 47  1  0
M  END
>  <Title>  (950) 
idABKNgen7

$$$$

     RDKit          2D

 12 12  0  0  0  0  0  0  0  0999 V2000
    2.8978    0.0000    0.0000 C   0  0  0  0  0  0  0  0  0  0  0  0
    2.5095   -1.4489    0.0000 C   0  0  0  0  0  0  0  0  0  0  0  0
    1.4489   -2.5095    0.0000 C   0  0  0  0  0  0  0  0  0  0  0  0
   -0.0000   -2.8978    0.0000 C   0  0  0  0  0  0  0  0  0  0  0  0
   -1.4489   -2.5095    0.0000 C   0  0  0  0  0  0  0  0  0  0  0  0
   -2.5095   -1.4489    0.0000 C   0  0  0  0  0  0  0  0  0  0  0  0
   -2.8978    0.0000    0.0000 C   0  0  0  0  0  0  0  0  0  0  0  0
   -2.5095    1.4489    0.0000 C   0  0  0  0  0  0  0  0  0  0  0  0
   -1.4489    2.5095    0.0000 C   0  0  0  0  0  0  0  0  0  0  0  0
    0.0000    2.8978    0.0000 C   0  0  0  0  0  0  0  0  0  0  0  0
    1.4489    2.5095    0.0000 C   0  0  0  0  0  0  0  0  0  0  0  0
    2.5095    1.4489    0.0000 C   0  0  0  0  0  0  0  0  0  0  0  0
  1  2  2  0
  2  3  1  0
  3  4  1  0
  4  5  1  0
  5  6  1  0
  6  7  1  0
  7  8  1  0
  8  9  1  0
  9 10  1  0
 10 11  1  0
 11 12  1  0
 12  1  1  0
M  END
>  <Title>  (951) 
idABKOgen7

$$$$

     RDKit          2D

 15 16  0  0  0  0  0  0  0  0999 V2000
   -3.3614   -6.1988    0.0000 C   0  0  0  0  0  0  0  0  0  0  0  0
   -1.9519   -5.6858    0.0000 O   0  0  0  0  0  0  0  0  0  0  0  0
   -1.6914   -4.2086    0.0000 C   0  0  0  0  0  0  0  0  0  0  0  0
   -0.2142   -3.9481    0.0000 C   0  0  0  0  0  0  0  0  0  0  0  0
    0.7500   -2.7990    0.0000 C   0  0  0  0  0  0  0  0  0  0  0  0
    0.7500   -1.2990    0.0000 C   0  0  0  0  0  0  0  0  0  0  0  0
    1.5000    0.0000    0.0000 C   0  0  0  0  0  0  0  0  0  0  0  0
    0.7500    1.2990    0.0000 C   0  0  0  0  0  0  0  0  0  0  0  0
   -0.7500    1.2990    0.0000 C   0  0  0  0  0  0  0  0  0  0  0  0
   -1.5000    0.0000    0.0000 C   0  0  0  0  0  0  0  0  0  0  0  0
   -2.9904   -0.6395    0.0000 C   0  0  0  0  0  0  0  0  0  0  0  0
   -3.5035   -2.0490    0.0000 C   0  0  0  0  0  0  0  0  0  0  0  0
   -2.9904   -3.4586    0.0000 C   0  0  0  0  0  0  0  0  0  0  0  0
   -4.1395   -4.4228    0.0000 O   0  0  0  0  0  0  0  0  0  0  0  0
   -0.7500   -1.2990    0.0000 N   0  0  0  0  0  0  0  0  0  0  0  0
  1  2  1  0
  2  3  1  0
  3  4  2  0
  4  5  1  0
  5  6  2  0
  6  7  1  0
  7  8  2  0
  8  9  1  0
  9 10  2  0
 10 11  1  0
 11 12  1  0
 12 13  1  0
 13 14  2  0
 10 15  1  0
 13  3  1  0
 15  6  1  0
M  END
>  <Title>  (952) 
idABKPgen7

$$$$

     RDKit          2D

 50 57  0  0  0  0  0  0  0  0999 V2000
    3.0000    0.0000    0.0000 C   0  0  0  0  0  0  0  0  0  0  0  0
    1.5000    0.0000    0.0000 C   0  0  0  0  0  0  0  0  0  0  0  0
    0.7500    1.2990    0.0000 C   0  0  0  0  0  0  0  0  0  0  0  0
   -0.7500    1.2990    0.0000 C   0  0  0  0  0  0  0  0  0  0  0  0
   -1.5000    0.0000    0.0000 C   0  0  0  0  0  0  0  0  0  0  0  0
   -3.0000    0.0000    0.0000 C   0  0  0  0  0  0  0  0  0  0  0  0
   -3.8817   -1.2135    0.0000 N   0  0  0  0  0  0  0  0  0  0  0  0
   -5.3083   -0.7500    0.0000 N   0  0  0  0  0  0  0  0  0  0  0  0
   -5.3083    0.7500    0.0000 N   0  0  0  0  0  0  0  0  0  0  0  0
   -3.8817    1.2135    0.0000 N   0  0  0  0  0  0  0  0  0  0  0  0
   -3.4182    2.6401    0.0000 C   0  0  0  0  0  0  0  0  0  0  0  0
   -1.9509    2.9520    0.0000 C   0  0  0  0  0  0  0  0  0  0  0  0
   -1.4874    4.3786    0.0000 C   0  0  0  0  0  0  0  0  0  0  0  0
   -2.4911    5.4933    0.0000 C   0  0  0  0  0  0  0  0  0  0  0  0
   -2.0276    6.9199    0.0000 C   0  0  0  0  0  0  0  0  0  0  0  0
   -3.0313    8.0346    0.0000 O   0  0  0  0  0  0  0  0  0  0  0  0
   -0.5604    7.2317    0.0000 N   0  0  0  0  0  0  0  0  0  0  0  0
   -0.0968    8.6583    0.0000 C   0  0  0  0  0  0  0  0  0  0  0  0
   -0.9785    9.8718    0.0000 N   0  0  0  0  0  0  0  0  0  0  0  0
   -0.0968   11.0854    0.0000 N   0  0  0  0  0  0  0  0  0  0  0  0
    1.3298   10.6218    0.0000 N   0  0  0  0  0  0  0  0  0  0  0  0
    1.3298    9.1218    0.0000 N   0  0  0  0  0  0  0  0  0  0  0  0
    2.5433    8.2402    0.0000 C   0  0  0  0  0  0  0  0  0  0  0  0
    2.3865    6.7484    0.0000 C   0  0  0  0  0  0  0  0  0  0  0  0
    3.6000    5.8667    0.0000 C   0  0  0  0  0  0  0  0  0  0  0  0
    4.9703    6.4768    0.0000 C   0  0  0  0  0  0  0  0  0  0  0  0
    6.1839    5.5951    0.0000 C   0  0  0  0  0  0  0  0  0  0  0  0
    6.0271    4.1033    0.0000 C   0  0  0  0  0  0  0  0  0  0  0  0
    7.2406    3.2217    0.0000 C   0  0  0  0  0  0  0  0  0  0  0  0
    8.6109    3.8318    0.0000 C   0  0  0  0  0  0  0  0  0  0  0  0
    8.7677    5.3236    0.0000 C   0  0  0  0  0  0  0  0  0  0  0  0
    7.5542    6.2052    0.0000 C   0  0  0  0  0  0  0  0  0  0  0  0
    5.1271    7.9686    0.0000 C   0  0  0  0  0  0  0  0  0  0  0  0
    3.9136    8.8503    0.0000 C   0  0  0  0  0  0  0  0  0  0  0  0
    4.0704   10.3421    0.0000 C   0  0  0  0  0  0  0  0  0  0  0  0
    2.9557   11.3457    0.0000 N   0  0  0  0  0  0  0  0  0  0  0  0
    3.5658   12.7161    0.0000 N   0  0  0  0  0  0  0  0  0  0  0  0
    5.0576   12.5593    0.0000 N   0  0  0  0  0  0  0  0  0  0  0  0
    5.3694   11.0921    0.0000 N   0  0  0  0  0  0  0  0  0  0  0  0
    6.7397   10.4819    0.0000 C   0  0  0  0  0  0  0  0  0  0  0  0
    6.8965    8.9902    0.0000 C   0  0  0  0  0  0  0  0  0  0  0  0
    8.2669    8.3801    0.0000 C   0  0  0  0  0  0  0  0  0  0  0  0
    9.4804    9.2617    0.0000 C   0  0  0  0  0  0  0  0  0  0  0  0
    9.3236   10.7535    0.0000 C   0  0  0  0  0  0  0  0  0  0  0  0
    7.9533   11.3636    0.0000 C   0  0  0  0  0  0  0  0  0  0  0  0
   -3.9583    5.1814    0.0000 C   0  0  0  0  0  0  0  0  0  0  0  0
   -4.4218    3.7548    0.0000 C   0  0  0  0  0  0  0  0  0  0  0  0
   -0.7500   -1.2990    0.0000 C   0  0  0  0  0  0  0  0  0  0  0  0
   -1.5000   -2.5981    0.0000 O   0  0  0  0  0  0  0  0  0  0  0  0
    0.7500   -1.2990    0.0000 N   0  0  0  0  0  0  0  0  0  0  0  0
  1  2  1  0
  2  3  2  0
  3  4  1  0
  4  5  2  0
  5  6  1  0
  6  7  2  0
  7  8  1  0
  8  9  2  0
  9 10  1  0
 10 11  1  0
 11 12  2  0
 12 13  1  0
 13 14  2  0
 14 15  1  0
 15 16  2  0
 15 17  1  0
 17 18  1  0
 18 19  2  0
 19 20  1  0
 20 21  2  0
 21 22  1  0
 22 23  1  0
 23 24  2  0
 24 25  1  0
 25 26  2  0
 26 27  1  0
 27 28  2  0
 28 29  1  0
 29 30  2  0
 30 31  1  0
 31 32  2  0
 26 33  1  0
 33 34  2  0
 34 35  1  0
 35 36  2  0
 36 37  1  0
 37 38  2  0
 38 39  1  0
 39 40  1  0
 40 41  2  0
 41 42  1  0
 42 43  2  0
 43 44  1  0
 44 45  2  0
 14 46  1  0
 46 47  2  0
  5 48  1  0
 48 49  2  0
 48 50  1  0
 50  2  1  0
 10  6  1  0
 47 11  1  0
 22 18  1  0
 34 23  1  0
 39 35  1  0
 45 40  1  0
 32 27  1  0
M  END
>  <Title>  (953) 
idABKQgen7

$$$$

     RDKit          2D

 30 34  0  0  0  0  0  0  0  0999 V2000
    3.6172    7.2057    0.0000 O   0  0  0  0  0  0  0  0  0  0  0  0
    4.8308    6.3240    0.0000 C   0  0  0  0  0  0  0  0  0  0  0  0
    6.2011    6.9341    0.0000 N   0  0  0  0  0  0  0  0  0  0  0  0
    7.4146    6.0524    0.0000 C   0  0  0  0  0  0  0  0  0  0  0  0
    8.7849    6.6625    0.0000 O   0  0  0  0  0  0  0  0  0  0  0  0
    7.2578    4.5606    0.0000 C   0  0  0  0  0  0  0  0  0  0  0  0
    5.8875    3.9505    0.0000 C   0  0  0  0  0  0  0  0  0  0  0  0
    4.6740    4.8322    0.0000 C   0  0  0  0  0  0  0  0  0  0  0  0
    3.3037    4.2221    0.0000 C   0  0  0  0  0  0  0  0  0  0  0  0
    2.0046    4.9721    0.0000 N   0  0  0  0  0  0  0  0  0  0  0  0
    0.8899    3.9684    0.0000 N   0  0  0  0  0  0  0  0  0  0  0  0
    1.5000    2.5981    0.0000 N   0  0  0  0  0  0  0  0  0  0  0  0
    2.9918    2.7549    0.0000 N   0  0  0  0  0  0  0  0  0  0  0  0
    3.9955    1.6402    0.0000 C   0  0  0  0  0  0  0  0  0  0  0  0
    3.5320    0.2136    0.0000 C   0  0  0  0  0  0  0  0  0  0  0  0
    4.5356   -0.9012    0.0000 C   0  0  0  0  0  0  0  0  0  0  0  0
    6.0029   -0.5893    0.0000 C   0  0  0  0  0  0  0  0  0  0  0  0
    7.0066   -1.7040    0.0000 C   0  0  0  0  0  0  0  0  0  0  0  0
    8.4983   -1.5472    0.0000 N   0  0  0  0  0  0  0  0  0  0  0  0
    9.1085   -2.9175    0.0000 N   0  0  0  0  0  0  0  0  0  0  0  0
    7.9937   -3.9212    0.0000 N   0  0  0  0  0  0  0  0  0  0  0  0
    6.6947   -3.1712    0.0000 N   0  0  0  0  0  0  0  0  0  0  0  0
    5.3244   -3.7813    0.0000 C   0  0  0  0  0  0  0  0  0  0  0  0
    4.1109   -2.8996    0.0000 C   0  0  0  0  0  0  0  0  0  0  0  0
    2.7405   -3.5098    0.0000 C   0  0  0  0  0  0  0  0  0  0  0  0
    2.5837   -5.0015    0.0000 C   0  0  0  0  0  0  0  0  0  0  0  0
    3.7973   -5.8832    0.0000 C   0  0  0  0  0  0  0  0  0  0  0  0
    5.1676   -5.2731    0.0000 C   0  0  0  0  0  0  0  0  0  0  0  0
    6.4664    0.8373    0.0000 C   0  0  0  0  0  0  0  0  0  0  0  0
    5.4627    1.9520    0.0000 C   0  0  0  0  0  0  0  0  0  0  0  0
  1  2  2  0
  2  3  1  0
  3  4  1  0
  4  5  1  0
  4  6  2  0
  6  7  1  0
  7  8  2  0
  8  9  1  0
  9 10  2  0
 10 11  1  0
 11 12  2  0
 12 13  1  0
 13 14  1  0
 14 15  2  0
 15 16  1  0
 16 17  2  0
 17 18  1  0
 18 19  2  0
 19 20  1  0
 20 21  2  0
 21 22  1  0
 22 23  1  0
 23 24  2  0
 24 25  1  0
 25 26  2  0
 26 27  1  0
 27 28  2  0
 17 29  1  0
 29 30  2  0
  8  2  1  0
 13  9  1  0
 30 14  1  0
 22 18  1  0
 28 23  1  0
M  END
>  <Title>  (954) 
idABKRgen7

$$$$

     RDKit          2D

 27 29  0  0  0  0  0  0  0  0999 V2000
    1.4656   -2.5386    0.0000 O   0  0  0  0  0  0  0  0  0  0  0  0
    0.7156   -1.2395    0.0000 C   0  0  0  0  0  0  0  0  0  0  0  0
    1.6798   -0.0905    0.0000 N   0  0  0  0  0  0  0  0  0  0  0  0
    1.6798    1.4095    0.0000 C   0  0  0  0  0  0  0  0  0  0  0  0
    0.4067    0.6698    0.0000 C   0  0  0  0  0  0  0  0  0  0  0  0
    0.4558    0.6636    0.0000 C   0  0  0  0  0  0  0  0  0  0  0  0
   -0.8026   -0.0629    0.0000 C   0  0  0  0  0  0  0  0  0  0  0  0
    0.6413   -3.6368    0.0000 O   0  0  0  0  0  0  0  0  0  0  0  0
   -0.7834   -0.0173    0.0000 C   0  0  0  0  0  0  0  0  0  0  0  0
   -2.0606   -0.7500    0.0000 C   0  0  0  0  0  0  0  0  0  0  0  0
   -2.0606    0.7500    0.0000 C   0  0  0  0  0  0  0  0  0  0  0  0
   -1.0964    1.8991    0.0000 C   0  0  0  0  0  0  0  0  0  0  0  0
    0.3808    2.1595    0.0000 C   0  0  0  0  0  0  0  0  0  0  0  0
   -0.7616   -1.5000    0.0000 C   0  0  0  0  0  0  0  0  0  0  0  0
   -1.0220   -2.9772    0.0000 N   0  0  0  0  0  0  0  0  0  0  0  0
   -2.4316   -3.4902    0.0000 C   0  0  0  0  0  0  0  0  0  0  0  0
   -2.6921   -4.9675    0.0000 C   0  0  0  0  0  0  0  0  0  0  0  0
   -4.1016   -5.4805    0.0000 C   0  0  0  0  0  0  0  0  0  0  0  0
   -4.3621   -6.9577    0.0000 C   0  0  0  0  0  0  0  0  0  0  0  0
   -5.7716   -7.4707    0.0000 C   0  0  0  0  0  0  0  0  0  0  0  0
   -6.0321   -8.9479    0.0000 C   0  0  0  0  0  0  0  0  0  0  0  0
   -7.4416   -9.4610    0.0000 C   0  0  0  0  0  0  0  0  0  0  0  0
   -7.7021  -10.9382    0.0000 C   0  0  0  0  0  0  0  0  0  0  0  0
   -6.6601  -12.0172    0.0000 C   0  0  0  0  0  0  0  0  0  0  0  0
   -7.3643  -13.3416    0.0000 C   0  0  0  0  0  0  0  0  0  0  0  0
   -8.8415  -13.0811    0.0000 C   0  0  0  0  0  0  0  0  0  0  0  0
   -9.0503  -11.5957    0.0000 C   0  0  0  0  0  0  0  0  0  0  0  0
  1  2  2  0
  2  3  1  0
  3  4  1  0
  4  5  2  0
  5  6  1  0
  6  7  2  0
  7  8  1  0
  7  9  1  0
  9 10  1  0
 10 11  2  0
 11 12  1  0
 12 13  2  0
 10 14  1  0
 14 15  2  3
 15 16  1  0
 16 17  2  3
 17 18  1  0
 18 19  2  3
 19 20  1  0
 20 21  2  3
 21 22  1  0
 22 23  2  3
 23 24  1  0
 24 25  2  0
 25 26  1  0
 26 27  2  0
 14  2  1  0
 27 23  1  0
 13  4  1  0
M  END
>  <Title>  (955) 
idABKSgen7

$$$$

     RDKit          2D

 15 15  0  0  0  0  0  0  0  0999 V2000
    5.1478   -1.2990    0.0000 C   0  0  0  0  0  0  0  0  0  0  0  0
    4.3978    0.0000    0.0000 C   0  0  0  0  0  0  0  0  0  0  0  0
    5.1478    1.2990    0.0000 O   0  0  0  0  0  0  0  0  0  0  0  0
    2.8978    0.0000    0.0000 C   0  0  0  0  0  0  0  0  0  0  0  0
    2.5095   -1.4489    0.0000 C   0  0  0  0  0  0  0  0  0  0  0  0
    1.4489   -2.5095    0.0000 C   0  0  0  0  0  0  0  0  0  0  0  0
   -0.0000   -2.8978    0.0000 C   0  0  0  0  0  0  0  0  0  0  0  0
   -1.4489   -2.5095    0.0000 C   0  0  0  0  0  0  0  0  0  0  0  0
   -2.5095   -1.4489    0.0000 C   0  0  0  0  0  0  0  0  0  0  0  0
   -2.8978    0.0000    0.0000 C   0  0  0  0  0  0  0  0  0  0  0  0
   -2.5095    1.4489    0.0000 C   0  0  0  0  0  0  0  0  0  0  0  0
   -1.4489    2.5095    0.0000 C   0  0  0  0  0  0  0  0  0  0  0  0
    0.0000    2.8978    0.0000 C   0  0  0  0  0  0  0  0  0  0  0  0
    1.4489    2.5095    0.0000 C   0  0  0  0  0  0  0  0  0  0  0  0
    2.5095    1.4489    0.0000 C   0  0  0  0  0  0  0  0  0  0  0  0
  1  2  1  0
  2  3  2  0
  2  4  1  0
  4  5  1  0
  5  6  1  0
  6  7  1  0
  7  8  1  0
  8  9  1  0
  9 10  1  0
 10 11  1  0
 11 12  1  0
 12 13  1  0
 13 14  1  0
 14 15  1  0
 15  4  1  0
M  END
>  <Title>  (956) 
idABKTgen7

$$$$

     RDKit          2D

 25 28  0  0  0  0  0  0  0  0999 V2000
    3.0000    0.0000    0.0000 C   0  0  0  0  0  0  0  0  0  0  0  0
    1.5000    0.0000    0.0000 C   0  0  0  0  0  0  0  0  0  0  0  0
    0.7500    1.2990    0.0000 C   0  0  0  0  0  0  0  0  0  0  0  0
   -0.7500    1.2990    0.0000 C   0  0  0  0  0  0  0  0  0  0  0  0
   -1.5000    0.0000    0.0000 C   0  0  0  0  0  0  0  0  0  0  0  0
   -3.0000    0.0000    0.0000 N   0  0  0  0  0  0  0  0  0  0  0  0
   -3.8817   -1.2135    0.0000 C   0  0  0  0  0  0  0  0  0  0  0  0
   -5.3083   -0.7500    0.0000 N   0  0  0  0  0  0  0  0  0  0  0  0
   -5.3083    0.7500    0.0000 N   0  0  0  0  0  0  0  0  0  0  0  0
   -3.8817    1.2135    0.0000 C   0  0  0  0  0  0  0  0  0  0  0  0
   -3.4182    2.6401    0.0000 C   0  0  0  0  0  0  0  0  0  0  0  0
   -1.9509    2.9520    0.0000 C   0  0  0  0  0  0  0  0  0  0  0  0
   -1.4874    4.3786    0.0000 C   0  0  0  0  0  0  0  0  0  0  0  0
   -2.4911    5.4933    0.0000 C   0  0  0  0  0  0  0  0  0  0  0  0
   -2.0276    6.9199    0.0000 C   0  0  0  0  0  0  0  0  0  0  0  0
   -0.5604    7.2317    0.0000 C   0  0  0  0  0  0  0  0  0  0  0  0
   -0.0968    8.6583    0.0000 C   0  0  0  0  0  0  0  0  0  0  0  0
   -1.1005    9.7730    0.0000 C   0  0  0  0  0  0  0  0  0  0  0  0
   -2.5677    9.4612    0.0000 C   0  0  0  0  0  0  0  0  0  0  0  0
   -3.0313    8.0346    0.0000 C   0  0  0  0  0  0  0  0  0  0  0  0
   -3.9583    5.1814    0.0000 C   0  0  0  0  0  0  0  0  0  0  0  0
   -4.4218    3.7548    0.0000 C   0  0  0  0  0  0  0  0  0  0  0  0
   -0.7500   -1.2990    0.0000 C   0  0  0  0  0  0  0  0  0  0  0  0
   -1.5000   -2.5981    0.0000 O   0  0  0  0  0  0  0  0  0  0  0  0
    0.7500   -1.2990    0.0000 N   0  0  0  0  0  0  0  0  0  0  0  0
  1  2  1  0
  2  3  2  0
  3  4  1  0
  4  5  2  0
  5  6  1  0
  6  7  1  0
  7  8  2  0
  8  9  1  0
  9 10  2  0
 10 11  1  0
 11 12  2  0
 12 13  1  0
 13 14  2  0
 14 15  1  0
 15 16  2  0
 16 17  1  0
 17 18  2  0
 18 19  1  0
 19 20  2  0
 14 21  1  0
 21 22  2  0
  5 23  1  0
 23 24  2  0
 23 25  1  0
 25  2  1  0
 10  6  1  0
 22 11  1  0
 20 15  1  0
M  END
>  <Title>  (957) 
idABKUgen7

$$$$

     RDKit          2D

 44 46  0  0  0  0  0  0  0  0999 V2000
   -9.5861   -0.3115    0.0000 C   0  0  0  0  0  0  0  0  0  0  0  0
   -8.6247   -1.4629    0.0000 C   0  0  0  0  0  0  0  0  0  0  0  0
   -8.9913   -2.9175    0.0000 C   0  0  0  0  0  0  0  0  0  0  0  0
   -7.7212   -3.7155    0.0000 C   0  0  0  0  0  0  0  0  0  0  0  0
   -6.5697   -2.7542    0.0000 C   0  0  0  0  0  0  0  0  0  0  0  0
   -7.1281   -1.3620    0.0000 C   0  0  0  0  0  0  0  0  0  0  0  0
   -6.3301   -0.0919    0.0000 C   0  0  0  0  0  0  0  0  0  0  0  0
   -4.8311   -0.1480    0.0000 C   0  0  0  0  0  0  0  0  0  0  0  0
   -4.0331    1.1221    0.0000 C   0  0  0  0  0  0  0  0  0  0  0  0
   -2.5341    1.0660    0.0000 C   0  0  0  0  0  0  0  0  0  0  0  0
   -1.7361    2.3361    0.0000 C   0  0  0  0  0  0  0  0  0  0  0  0
   -2.9088    3.2713    0.0000 C   0  0  0  0  0  0  0  0  0  0  0  0
   -3.9695    2.2106    0.0000 C   0  0  0  0  0  0  0  0  0  0  0  0
   -3.8441    4.4440    0.0000 C   0  0  0  0  0  0  0  0  0  0  0  0
   -4.4949    5.7955    0.0000 C   0  0  0  0  0  0  0  0  0  0  0  0
   -4.8287    7.2579    0.0000 C   0  0  0  0  0  0  0  0  0  0  0  0
   -4.8287    8.7579    0.0000 C   0  0  0  0  0  0  0  0  0  0  0  0
   -4.4949   10.2203    0.0000 C   0  0  0  0  0  0  0  0  0  0  0  0
   -3.8441   11.5717    0.0000 C   0  0  0  0  0  0  0  0  0  0  0  0
   -2.9088   12.7445    0.0000 C   0  0  0  0  0  0  0  0  0  0  0  0
   -1.7361   13.6797    0.0000 C   0  0  0  0  0  0  0  0  0  0  0  0
   -0.3846   14.3305    0.0000 C   0  0  0  0  0  0  0  0  0  0  0  0
    1.0777   14.6643    0.0000 C   0  0  0  0  0  0  0  0  0  0  0  0
    2.5777   14.6643    0.0000 C   0  0  0  0  0  0  0  0  0  0  0  0
    4.0401   14.3305    0.0000 C   0  0  0  0  0  0  0  0  0  0  0  0
    5.3916   13.6797    0.0000 C   0  0  0  0  0  0  0  0  0  0  0  0
    6.5643   12.7445    0.0000 C   0  0  0  0  0  0  0  0  0  0  0  0
    7.4996   11.5717    0.0000 C   0  0  0  0  0  0  0  0  0  0  0  0
    8.1504   10.2203    0.0000 C   0  0  0  0  0  0  0  0  0  0  0  0
    8.4842    8.7579    0.0000 C   0  0  0  0  0  0  0  0  0  0  0  0
    8.4842    7.2579    0.0000 C   0  0  0  0  0  0  0  0  0  0  0  0
    8.1504    5.7955    0.0000 C   0  0  0  0  0  0  0  0  0  0  0  0
    7.4996    4.4440    0.0000 C   0  0  0  0  0  0  0  0  0  0  0  0
    6.5643    3.2713    0.0000 C   0  0  0  0  0  0  0  0  0  0  0  0
    5.3916    2.3361    0.0000 C   0  0  0  0  0  0  0  0  0  0  0  0
    4.0401    1.6852    0.0000 C   0  0  0  0  0  0  0  0  0  0  0  0
    2.5777    1.3515    0.0000 C   0  0  0  0  0  0  0  0  0  0  0  0
    1.0777    1.3515    0.0000 C   0  0  0  0  0  0  0  0  0  0  0  0
    1.7286    0.0000    0.0000 C   0  0  0  0  0  0  0  0  0  0  0  0
    1.0777   -1.3515    0.0000 C   0  0  0  0  0  0  0  0  0  0  0  0
   -0.3846   -1.6852    0.0000 C   0  0  0  0  0  0  0  0  0  0  0  0
   -1.5574   -0.7500    0.0000 C   0  0  0  0  0  0  0  0  0  0  0  0
   -1.5574    0.7500    0.0000 C   0  0  0  0  0  0  0  0  0  0  0  0
   -0.3846    1.6852    0.0000 C   0  0  0  0  0  0  0  0  0  0  0  0
  1  2  1  0
  2  3  2  0
  3  4  1  0
  4  5  2  0
  5  6  1  0
  6  7  2  3
  7  8  1  0
  8  9  2  3
  9 10  1  0
 10 11  2  3
 11 12  1  0
 12 13  1  0
 12 14  2  0
 14 15  1  0
 15 16  2  0
 16 17  1  0
 17 18  2  0
 18 19  1  0
 19 20  2  0
 20 21  1  0
 21 22  2  0
 22 23  1  0
 23 24  2  0
 24 25  1  0
 25 26  2  0
 26 27  1  0
 27 28  2  0
 28 29  1  0
 29 30  2  0
 30 31  1  0
 31 32  2  0
 32 33  1  0
 33 34  2  0
 34 35  1  0
 35 36  2  0
 36 37  1  0
 37 38  2  0
 38 39  1  0
 39 40  2  0
 40 41  1  0
 41 42  2  0
 42 43  1  0
 43 44  2  0
  6  2  1  0
 44 11  1  0
 44 38  1  0
M  END
>  <Title>  (958) 
idABKVgen7

$$$$

     RDKit          2D

 18 18  0  0  0  0  0  0  0  0999 V2000
    4.1621   -5.1962    0.0000 C   0  0  0  0  0  0  0  0  0  0  0  0
    4.9121   -3.8971    0.0000 C   0  0  0  0  0  0  0  0  0  0  0  0
    6.4121   -3.8971    0.0000 C   0  0  0  0  0  0  0  0  0  0  0  0
    4.1621   -2.5981    0.0000 C   0  0  0  0  0  0  0  0  0  0  0  0
    4.9121   -1.2990    0.0000 C   0  0  0  0  0  0  0  0  0  0  0  0
    6.4121   -1.2990    0.0000 C   0  0  0  0  0  0  0  0  0  0  0  0
    4.1621    0.0000    0.0000 C   0  0  0  0  0  0  0  0  0  0  0  0
    2.6621    0.0000    0.0000 C   0  0  0  0  0  0  0  0  0  0  0  0
    2.2395    1.4392    0.0000 C   0  0  0  0  0  0  0  0  0  0  0  0
    1.1059    2.4215    0.0000 C   0  0  0  0  0  0  0  0  0  0  0  0
   -0.3789    2.6350    0.0000 C   0  0  0  0  0  0  0  0  0  0  0  0
   -1.7433    2.0119    0.0000 C   0  0  0  0  0  0  0  0  0  0  0  0
   -2.5543    0.7500    0.0000 C   0  0  0  0  0  0  0  0  0  0  0  0
   -2.5543   -0.7500    0.0000 C   0  0  0  0  0  0  0  0  0  0  0  0
   -1.7433   -2.0119    0.0000 C   0  0  0  0  0  0  0  0  0  0  0  0
   -0.3789   -2.6350    0.0000 C   0  0  0  0  0  0  0  0  0  0  0  0
    1.1059   -2.4215    0.0000 C   0  0  0  0  0  0  0  0  0  0  0  0
    2.2395   -1.4392    0.0000 C   0  0  0  0  0  0  0  0  0  0  0  0
  1  2  1  0
  2  3  1  0
  2  4  1  0
  4  5  1  0
  5  6  1  0
  5  7  1  0
  7  8  1  0
  8  9  1  0
  9 10  1  0
 10 11  1  0
 11 12  1  0
 12 13  1  0
 13 14  1  0
 14 15  1  0
 15 16  1  0
 16 17  1  0
 17 18  1  0
 18  8  1  0
M  END
>  <Title>  (959) 
idABKWgen7

$$$$

     RDKit          2D

 13 13  0  0  0  0  0  0  0  0999 V2000
    3.9271    0.0000    0.0000 C   0  0  0  0  0  0  0  0  0  0  0  0
    2.4271    0.0000    0.0000 C   0  0  0  0  0  0  0  0  0  0  0  0
    1.9635   -1.4266    0.0000 C   0  0  0  0  0  0  0  0  0  0  0  0
    0.7500   -2.3083    0.0000 C   0  0  0  0  0  0  0  0  0  0  0  0
   -0.7500   -2.3083    0.0000 C   0  0  0  0  0  0  0  0  0  0  0  0
   -1.9635   -1.4266    0.0000 C   0  0  0  0  0  0  0  0  0  0  0  0
   -2.4271    0.0000    0.0000 C   0  0  0  0  0  0  0  0  0  0  0  0
   -1.9635    1.4266    0.0000 C   0  0  0  0  0  0  0  0  0  0  0  0
   -0.7500    2.3083    0.0000 C   0  0  0  0  0  0  0  0  0  0  0  0
   -1.2135    3.7348    0.0000 C   0  0  0  0  0  0  0  0  0  0  0  0
    0.7500    2.3083    0.0000 C   0  0  0  0  0  0  0  0  0  0  0  0
    1.2135    3.7348    0.0000 O   0  0  0  0  0  0  0  0  0  0  0  0
    1.9635    1.4266    0.0000 N   0  0  0  0  0  0  0  0  0  0  0  0
  1  2  1  0
  2  3  2  0
  3  4  1  0
  4  5  2  0
  5  6  1  0
  6  7  2  0
  7  8  1  0
  8  9  2  0
  9 10  1  0
  9 11  1  0
 11 12  2  0
 11 13  1  0
 13  2  1  0
M  END
>  <Title>  (960) 
idABKXgen7

$$$$

     RDKit          2D

 51 58  0  0  0  0  0  0  0  0999 V2000
   -8.2500   -6.4952    0.0000 C   0  0  0  0  0  0  0  0  0  0  0  0
   -7.5000   -5.1962    0.0000 C   0  0  0  0  0  0  0  0  0  0  0  0
   -6.0000   -5.1962    0.0000 C   0  0  0  0  0  0  0  0  0  0  0  0
   -5.2500   -3.8971    0.0000 C   0  0  0  0  0  0  0  0  0  0  0  0
   -6.0000   -2.5981    0.0000 C   0  0  0  0  0  0  0  0  0  0  0  0
   -5.2500   -1.2990    0.0000 N   0  0  0  0  0  0  0  0  0  0  0  0
   -6.0000    0.0000    0.0000 N   0  0  0  0  0  0  0  0  0  0  0  0
   -5.2500    1.2990    0.0000 N   0  0  0  0  0  0  0  0  0  0  0  0
   -3.7500    1.2990    0.0000 N   0  0  0  0  0  0  0  0  0  0  0  0
   -3.0000    0.0000    0.0000 N   0  0  0  0  0  0  0  0  0  0  0  0
   -3.7500   -1.2990    0.0000 N   0  0  0  0  0  0  0  0  0  0  0  0
   -3.0000   -2.5981    0.0000 C   0  0  0  0  0  0  0  0  0  0  0  0
   -3.7500   -3.8971    0.0000 C   0  0  0  0  0  0  0  0  0  0  0  0
   -3.0000   -5.1962    0.0000 C   0  0  0  0  0  0  0  0  0  0  0  0
   -1.5000   -5.1962    0.0000 C   0  0  0  0  0  0  0  0  0  0  0  0
   -0.7500   -6.4952    0.0000 C   0  0  0  0  0  0  0  0  0  0  0  0
    0.7500   -6.4952    0.0000 O   0  0  0  0  0  0  0  0  0  0  0  0
   -1.5000   -7.7942    0.0000 N   0  0  0  0  0  0  0  0  0  0  0  0
   -0.7500   -9.0933    0.0000 C   0  0  0  0  0  0  0  0  0  0  0  0
    0.7418   -9.2501    0.0000 N   0  0  0  0  0  0  0  0  0  0  0  0
    1.0537  -10.7173    0.0000 N   0  0  0  0  0  0  0  0  0  0  0  0
   -0.2454  -11.4673    0.0000 N   0  0  0  0  0  0  0  0  0  0  0  0
   -1.3601  -10.4636    0.0000 N   0  0  0  0  0  0  0  0  0  0  0  0
   -2.8273  -10.7755    0.0000 C   0  0  0  0  0  0  0  0  0  0  0  0
   -3.8310   -9.6607    0.0000 C   0  0  0  0  0  0  0  0  0  0  0  0
   -5.2982   -9.9726    0.0000 C   0  0  0  0  0  0  0  0  0  0  0  0
   -5.7618  -11.3992    0.0000 C   0  0  0  0  0  0  0  0  0  0  0  0
   -4.7581  -12.5139    0.0000 C   0  0  0  0  0  0  0  0  0  0  0  0
   -3.2909  -12.2020    0.0000 C   0  0  0  0  0  0  0  0  0  0  0  0
   -0.7500   -3.8971    0.0000 C   0  0  0  0  0  0  0  0  0  0  0  0
   -1.5000   -2.5981    0.0000 C   0  0  0  0  0  0  0  0  0  0  0  0
   -0.7500   -1.2990    0.0000 C   0  0  0  0  0  0  0  0  0  0  0  0
   -1.3601    0.0713    0.0000 C   0  0  0  0  0  0  0  0  0  0  0  0
   -0.2454    1.0750    0.0000 C   0  0  0  0  0  0  0  0  0  0  0  0
    1.0537    0.3250    0.0000 C   0  0  0  0  0  0  0  0  0  0  0  0
    2.4240    0.9351    0.0000 C   0  0  0  0  0  0  0  0  0  0  0  0
    2.7358    2.4023    0.0000 N   0  0  0  0  0  0  0  0  0  0  0  0
    4.2276    2.5591    0.0000 N   0  0  0  0  0  0  0  0  0  0  0  0
    4.8377    1.1888    0.0000 N   0  0  0  0  0  0  0  0  0  0  0  0
    3.7230    0.1851    0.0000 N   0  0  0  0  0  0  0  0  0  0  0  0
    3.8798   -1.3067    0.0000 C   0  0  0  0  0  0  0  0  0  0  0  0
    2.6663   -2.1884    0.0000 C   0  0  0  0  0  0  0  0  0  0  0  0
    2.8231   -3.6802    0.0000 C   0  0  0  0  0  0  0  0  0  0  0  0
    4.1934   -4.2903    0.0000 C   0  0  0  0  0  0  0  0  0  0  0  0
    5.4069   -3.4086    0.0000 C   0  0  0  0  0  0  0  0  0  0  0  0
    5.2501   -1.9168    0.0000 C   0  0  0  0  0  0  0  0  0  0  0  0
    0.7418   -1.1422    0.0000 C   0  0  0  0  0  0  0  0  0  0  0  0
    1.7455   -2.2570    0.0000 O   0  0  0  0  0  0  0  0  0  0  0  0
   -7.5000   -2.5981    0.0000 C   0  0  0  0  0  0  0  0  0  0  0  0
   -8.2500   -1.2990    0.0000 O   0  0  0  0  0  0  0  0  0  0  0  0
   -8.2500   -3.8971    0.0000 N   0  0  0  0  0  0  0  0  0  0  0  0
  1  2  1  0
  2  3  2  0
  3  4  1  0
  4  5  2  0
  5  6  1  0
  6  7  1  0
  7  8  2  0
  8  9  1  0
  9 10  2  0
 10 11  1  0
 11 12  1  0
 12 13  2  0
 13 14  1  0
 14 15  2  0
 15 16  1  0
 16 17  2  0
 16 18  1  0
 18 19  1  0
 19 20  2  0
 20 21  1  0
 21 22  2  0
 22 23  1  0
 23 24  1  0
 24 25  2  0
 25 26  1  0
 26 27  2  0
 27 28  1  0
 28 29  2  0
 15 30  1  0
 30 31  2  0
 31 32  1  0
 32 33  2  0
 33 34  1  0
 34 35  2  0
 35 36  1  0
 36 37  2  0
 37 38  1  0
 38 39  2  0
 39 40  1  0
 40 41  1  0
 41 42  2  0
 42 43  1  0
 43 44  2  0
 44 45  1  0
 45 46  2  0
 35 47  1  0
 47 48  2  0
  5 49  1  0
 49 50  2  0
 49 51  1  0
 51  2  1  0
 11  6  1  0
 31 12  1  0
 47 32  1  0
 23 19  1  0
 29 24  1  0
 40 36  1  0
 46 41  1  0
M  END
>  <Title>  (961) 
idABKYgen7

$$$$

     RDKit          2D

 41 47  0  0  0  0  0  0  0  0999 V2000
    3.0000    0.0000    0.0000 C   0  0  0  0  0  0  0  0  0  0  0  0
    1.5000    0.0000    0.0000 C   0  0  0  0  0  0  0  0  0  0  0  0
    0.7500   -1.2990    0.0000 C   0  0  0  0  0  0  0  0  0  0  0  0
   -0.7500   -1.2990    0.0000 C   0  0  0  0  0  0  0  0  0  0  0  0
   -1.5000    0.0000    0.0000 C   0  0  0  0  0  0  0  0  0  0  0  0
   -3.0000    0.0000    0.0000 C   0  0  0  0  0  0  0  0  0  0  0  0
   -3.8817   -1.2135    0.0000 N   0  0  0  0  0  0  0  0  0  0  0  0
   -5.3083   -0.7500    0.0000 N   0  0  0  0  0  0  0  0  0  0  0  0
   -5.3083    0.7500    0.0000 N   0  0  0  0  0  0  0  0  0  0  0  0
   -3.8817    1.2135    0.0000 N   0  0  0  0  0  0  0  0  0  0  0  0
   -3.4182    2.6401    0.0000 C   0  0  0  0  0  0  0  0  0  0  0  0
   -1.9509    2.9520    0.0000 C   0  0  0  0  0  0  0  0  0  0  0  0
   -1.4874    4.3786    0.0000 C   0  0  0  0  0  0  0  0  0  0  0  0
   -2.4911    5.4933    0.0000 C   0  0  0  0  0  0  0  0  0  0  0  0
   -2.0276    6.9199    0.0000 C   0  0  0  0  0  0  0  0  0  0  0  0
   -2.9093    8.1334    0.0000 N   0  0  0  0  0  0  0  0  0  0  0  0
   -2.0276    9.3469    0.0000 N   0  0  0  0  0  0  0  0  0  0  0  0
   -0.6010    8.8834    0.0000 N   0  0  0  0  0  0  0  0  0  0  0  0
   -0.6010    7.3834    0.0000 N   0  0  0  0  0  0  0  0  0  0  0  0
    0.6125    6.5017    0.0000 C   0  0  0  0  0  0  0  0  0  0  0  0
    0.4557    5.0099    0.0000 C   0  0  0  0  0  0  0  0  0  0  0  0
    1.6693    4.1283    0.0000 C   0  0  0  0  0  0  0  0  0  0  0  0
    3.0396    4.7384    0.0000 C   0  0  0  0  0  0  0  0  0  0  0  0
    4.2531    3.8567    0.0000 C   0  0  0  0  0  0  0  0  0  0  0  0
    4.0963    2.3649    0.0000 C   0  0  0  0  0  0  0  0  0  0  0  0
    5.3098    1.4832    0.0000 C   0  0  0  0  0  0  0  0  0  0  0  0
    6.6802    2.0933    0.0000 C   0  0  0  0  0  0  0  0  0  0  0  0
    6.8370    3.5851    0.0000 C   0  0  0  0  0  0  0  0  0  0  0  0
    5.6234    4.4668    0.0000 C   0  0  0  0  0  0  0  0  0  0  0  0
    3.1964    6.2301    0.0000 C   0  0  0  0  0  0  0  0  0  0  0  0
    1.9829    7.1118    0.0000 C   0  0  0  0  0  0  0  0  0  0  0  0
    2.1396    8.6036    0.0000 C   0  0  0  0  0  0  0  0  0  0  0  0
    3.5100    9.2137    0.0000 C   0  0  0  0  0  0  0  0  0  0  0  0
    3.6668   10.7055    0.0000 C   0  0  0  0  0  0  0  0  0  0  0  0
    2.4532   11.5872    0.0000 C   0  0  0  0  0  0  0  0  0  0  0  0
    1.0829   10.9771    0.0000 C   0  0  0  0  0  0  0  0  0  0  0  0
    0.9261    9.4853    0.0000 C   0  0  0  0  0  0  0  0  0  0  0  0
   -3.9583    5.1814    0.0000 C   0  0  0  0  0  0  0  0  0  0  0  0
   -4.4218    3.7548    0.0000 C   0  0  0  0  0  0  0  0  0  0  0  0
   -0.7500    1.2990    0.0000 C   0  0  0  0  0  0  0  0  0  0  0  0
    0.7500    1.2990    0.0000 C   0  0  0  0  0  0  0  0  0  0  0  0
  1  2  1  0
  2  3  2  0
  3  4  1  0
  4  5  2  0
  5  6  1  0
  6  7  2  0
  7  8  1  0
  8  9  2  0
  9 10  1  0
 10 11  1  0
 11 12  2  0
 12 13  1  0
 13 14  2  0
 14 15  1  0
 15 16  2  0
 16 17  1  0
 17 18  2  0
 18 19  1  0
 19 20  1  0
 20 21  2  0
 21 22  1  0
 22 23  2  0
 23 24  1  0
 24 25  2  0
 25 26  1  0
 26 27  2  0
 27 28  1  0
 28 29  2  0
 23 30  1  0
 30 31  2  0
 31 32  1  0
 32 33  2  0
 33 34  1  0
 34 35  2  0
 35 36  1  0
 36 37  2  0
 14 38  1  0
 38 39  2  0
  5 40  1  0
 40 41  2  0
 41  2  1  0
 10  6  1  0
 39 11  1  0
 19 15  1  0
 31 20  1  0
 37 32  1  0
 29 24  1  0
M  END
>  <Title>  (962) 
idABKZgen7

$$$$

     RDKit          2D

 22 24  0  0  0  0  0  0  0  0999 V2000
    3.7500   -1.2990    0.0000 C   0  0  0  0  0  0  0  0  0  0  0  0
    3.0000    0.0000    0.0000 C   0  0  0  0  0  0  0  0  0  0  0  0
    1.5000    0.0000    0.0000 C   0  0  0  0  0  0  0  0  0  0  0  0
    0.7500   -1.2990    0.0000 C   0  0  0  0  0  0  0  0  0  0  0  0
   -0.7500   -1.2990    0.0000 C   0  0  0  0  0  0  0  0  0  0  0  0
   -1.5000    0.0000    0.0000 C   0  0  0  0  0  0  0  0  0  0  0  0
   -3.0000    0.0000    0.0000 C   0  0  0  0  0  0  0  0  0  0  0  0
   -3.7500   -1.2990    0.0000 O   0  0  0  0  0  0  0  0  0  0  0  0
   -3.7500    1.2990    0.0000 N   0  0  0  0  0  0  0  0  0  0  0  0
   -5.2500    1.2990    0.0000 C   0  0  0  0  0  0  0  0  0  0  0  0
   -6.1317    0.0855    0.0000 N   0  0  0  0  0  0  0  0  0  0  0  0
   -7.5583    0.5490    0.0000 N   0  0  0  0  0  0  0  0  0  0  0  0
   -7.5583    2.0490    0.0000 N   0  0  0  0  0  0  0  0  0  0  0  0
   -6.1317    2.5126    0.0000 N   0  0  0  0  0  0  0  0  0  0  0  0
   -5.6682    3.9391    0.0000 C   0  0  0  0  0  0  0  0  0  0  0  0
   -4.2009    4.2510    0.0000 C   0  0  0  0  0  0  0  0  0  0  0  0
   -3.7374    5.6776    0.0000 C   0  0  0  0  0  0  0  0  0  0  0  0
   -4.7411    6.7923    0.0000 C   0  0  0  0  0  0  0  0  0  0  0  0
   -6.2083    6.4805    0.0000 C   0  0  0  0  0  0  0  0  0  0  0  0
   -6.6718    5.0539    0.0000 C   0  0  0  0  0  0  0  0  0  0  0  0
   -0.7500    1.2990    0.0000 C   0  0  0  0  0  0  0  0  0  0  0  0
    0.7500    1.2990    0.0000 C   0  0  0  0  0  0  0  0  0  0  0  0
  1  2  1  0
  2  3  1  0
  3  4  2  0
  4  5  1  0
  5  6  2  0
  6  7  1  0
  7  8  2  0
  7  9  1  0
  9 10  1  0
 10 11  2  0
 11 12  1  0
 12 13  2  0
 13 14  1  0
 14 15  1  0
 15 16  2  0
 16 17  1  0
 17 18  2  0
 18 19  1  0
 19 20  2  0
  6 21  1  0
 21 22  2  0
 22  3  1  0
 14 10  1  0
 20 15  1  0
M  END
>  <Title>  (963) 
idABLAgen7

$$$$

     RDKit          2D

 14 14  0  0  0  0  0  0  0  0999 V2000
    4.6339    0.0000    0.0000 O   0  0  0  0  0  0  0  0  0  0  0  0
    3.1339    0.0000    0.0000 C   0  0  0  0  0  0  0  0  0  0  0  0
    2.7750    1.4564    0.0000 C   0  0  0  0  0  0  0  0  0  0  0  0
    1.7803    2.5792    0.0000 C   0  0  0  0  0  0  0  0  0  0  0  0
    0.3778    3.1111    0.0000 C   0  0  0  0  0  0  0  0  0  0  0  0
   -1.1113    2.9303    0.0000 C   0  0  0  0  0  0  0  0  0  0  0  0
   -2.3458    2.0782    0.0000 C   0  0  0  0  0  0  0  0  0  0  0  0
   -3.0429    0.7500    0.0000 C   0  0  0  0  0  0  0  0  0  0  0  0
   -3.0429   -0.7500    0.0000 C   0  0  0  0  0  0  0  0  0  0  0  0
   -2.3458   -2.0782    0.0000 C   0  0  0  0  0  0  0  0  0  0  0  0
   -1.1113   -2.9303    0.0000 C   0  0  0  0  0  0  0  0  0  0  0  0
    0.3778   -3.1111    0.0000 C   0  0  0  0  0  0  0  0  0  0  0  0
    1.7803   -2.5792    0.0000 C   0  0  0  0  0  0  0  0  0  0  0  0
    2.7750   -1.4564    0.0000 C   0  0  0  0  0  0  0  0  0  0  0  0
  1  2  1  0
  2  3  2  0
  3  4  1  0
  4  5  2  0
  5  6  1  0
  6  7  2  0
  7  8  1  0
  8  9  2  0
  9 10  1  0
 10 11  2  0
 11 12  1  0
 12 13  2  0
 13 14  1  0
 14  2  1  0
M  END
>  <Title>  (964) 
idABLBgen7

$$$$

     RDKit          2D

 27 30  0  0  0  0  0  0  0  0999 V2000
    3.0000    0.0000    0.0000 C   0  0  0  0  0  0  0  0  0  0  0  0
    1.5000    0.0000    0.0000 C   0  0  0  0  0  0  0  0  0  0  0  0
    0.7500   -1.2990    0.0000 C   0  0  0  0  0  0  0  0  0  0  0  0
   -0.7500   -1.2990    0.0000 C   0  0  0  0  0  0  0  0  0  0  0  0
   -1.5000    0.0000    0.0000 C   0  0  0  0  0  0  0  0  0  0  0  0
   -3.0000    0.0000    0.0000 C   0  0  0  0  0  0  0  0  0  0  0  0
   -3.7500   -1.2990    0.0000 O   0  0  0  0  0  0  0  0  0  0  0  0
   -3.7500    1.2990    0.0000 N   0  0  0  0  0  0  0  0  0  0  0  0
   -5.2500    1.2990    0.0000 C   0  0  0  0  0  0  0  0  0  0  0  0
   -6.1317    0.0855    0.0000 N   0  0  0  0  0  0  0  0  0  0  0  0
   -7.5583    0.5490    0.0000 N   0  0  0  0  0  0  0  0  0  0  0  0
   -7.5583    2.0490    0.0000 N   0  0  0  0  0  0  0  0  0  0  0  0
   -6.1317    2.5126    0.0000 N   0  0  0  0  0  0  0  0  0  0  0  0
   -5.6682    3.9391    0.0000 C   0  0  0  0  0  0  0  0  0  0  0  0
   -4.2009    4.2510    0.0000 C   0  0  0  0  0  0  0  0  0  0  0  0
   -3.7374    5.6776    0.0000 C   0  0  0  0  0  0  0  0  0  0  0  0
   -4.7411    6.7923    0.0000 C   0  0  0  0  0  0  0  0  0  0  0  0
   -4.2776    8.2189    0.0000 C   0  0  0  0  0  0  0  0  0  0  0  0
   -2.8104    8.5308    0.0000 C   0  0  0  0  0  0  0  0  0  0  0  0
   -2.3468    9.9574    0.0000 C   0  0  0  0  0  0  0  0  0  0  0  0
   -3.3505   11.0721    0.0000 C   0  0  0  0  0  0  0  0  0  0  0  0
   -4.8177   10.7602    0.0000 C   0  0  0  0  0  0  0  0  0  0  0  0
   -5.2813    9.3336    0.0000 C   0  0  0  0  0  0  0  0  0  0  0  0
   -6.2083    6.4805    0.0000 C   0  0  0  0  0  0  0  0  0  0  0  0
   -6.6718    5.0539    0.0000 C   0  0  0  0  0  0  0  0  0  0  0  0
   -0.7500    1.2990    0.0000 C   0  0  0  0  0  0  0  0  0  0  0  0
    0.7500    1.2990    0.0000 C   0  0  0  0  0  0  0  0  0  0  0  0
  1  2  1  0
  2  3  2  0
  3  4  1  0
  4  5  2  0
  5  6  1  0
  6  7  2  0
  6  8  1  0
  8  9  1  0
  9 10  2  0
 10 11  1  0
 11 12  2  0
 12 13  1  0
 13 14  1  0
 14 15  2  0
 15 16  1  0
 16 17  2  0
 17 18  1  0
 18 19  2  0
 19 20  1  0
 20 21  2  0
 21 22  1  0
 22 23  2  0
 17 24  1  0
 24 25  1  0
  5 26  1  0
 26 27  1  0
 27  2  1  0
 13  9  1  0
 25 14  1  0
 23 18  1  0
M  END
>  <Title>  (965) 
idABLCgen7

$$$$

     RDKit          2D

 41 41  0  0  0  0  0  0  0  0999 V2000
   11.0591    0.0000    0.0000 C   0  0  0  0  0  0  0  0  0  0  0  0
    9.5591    0.0000    0.0000 C   0  0  0  0  0  0  0  0  0  0  0  0
    9.4414   -1.4954    0.0000 C   0  0  0  0  0  0  0  0  0  0  0  0
    9.0913   -2.9539    0.0000 C   0  0  0  0  0  0  0  0  0  0  0  0
    8.5172   -4.3398    0.0000 C   0  0  0  0  0  0  0  0  0  0  0  0
    7.7335   -5.6187    0.0000 C   0  0  0  0  0  0  0  0  0  0  0  0
    6.7593   -6.7593    0.0000 C   0  0  0  0  0  0  0  0  0  0  0  0
    5.6187   -7.7335    0.0000 C   0  0  0  0  0  0  0  0  0  0  0  0
    4.3398   -8.5172    0.0000 C   0  0  0  0  0  0  0  0  0  0  0  0
    2.9539   -9.0913    0.0000 C   0  0  0  0  0  0  0  0  0  0  0  0
    1.4954   -9.4414    0.0000 C   0  0  0  0  0  0  0  0  0  0  0  0
   -0.0000   -9.5591    0.0000 C   0  0  0  0  0  0  0  0  0  0  0  0
   -1.4954   -9.4414    0.0000 C   0  0  0  0  0  0  0  0  0  0  0  0
   -2.9539   -9.0913    0.0000 C   0  0  0  0  0  0  0  0  0  0  0  0
   -4.3398   -8.5172    0.0000 C   0  0  0  0  0  0  0  0  0  0  0  0
   -5.6187   -7.7335    0.0000 C   0  0  0  0  0  0  0  0  0  0  0  0
   -6.7593   -6.7593    0.0000 C   0  0  0  0  0  0  0  0  0  0  0  0
   -7.7335   -5.6187    0.0000 C   0  0  0  0  0  0  0  0  0  0  0  0
   -8.5172   -4.3398    0.0000 C   0  0  0  0  0  0  0  0  0  0  0  0
   -9.0913   -2.9539    0.0000 C   0  0  0  0  0  0  0  0  0  0  0  0
   -9.4414   -1.4954    0.0000 C   0  0  0  0  0  0  0  0  0  0  0  0
   -9.5591    0.0000    0.0000 C   0  0  0  0  0  0  0  0  0  0  0  0
   -9.4414    1.4954    0.0000 C   0  0  0  0  0  0  0  0  0  0  0  0
   -9.0913    2.9539    0.0000 C   0  0  0  0  0  0  0  0  0  0  0  0
   -8.5172    4.3398    0.0000 C   0  0  0  0  0  0  0  0  0  0  0  0
   -7.7335    5.6187    0.0000 C   0  0  0  0  0  0  0  0  0  0  0  0
   -6.7593    6.7593    0.0000 C   0  0  0  0  0  0  0  0  0  0  0  0
   -5.6187    7.7335    0.0000 C   0  0  0  0  0  0  0  0  0  0  0  0
   -4.3398    8.5172    0.0000 C   0  0  0  0  0  0  0  0  0  0  0  0
   -2.9539    9.0913    0.0000 C   0  0  0  0  0  0  0  0  0  0  0  0
   -1.4954    9.4414    0.0000 C   0  0  0  0  0  0  0  0  0  0  0  0
    0.0000    9.5591    0.0000 C   0  0  0  0  0  0  0  0  0  0  0  0
    1.4954    9.4414    0.0000 C   0  0  0  0  0  0  0  0  0  0  0  0
    2.9539    9.0913    0.0000 C   0  0  0  0  0  0  0  0  0  0  0  0
    4.3398    8.5172    0.0000 C   0  0  0  0  0  0  0  0  0  0  0  0
    5.6187    7.7335    0.0000 C   0  0  0  0  0  0  0  0  0  0  0  0
    6.7593    6.7593    0.0000 C   0  0  0  0  0  0  0  0  0  0  0  0
    7.7335    5.6187    0.0000 C   0  0  0  0  0  0  0  0  0  0  0  0
    8.5172    4.3398    0.0000 C   0  0  0  0  0  0  0  0  0  0  0  0
    9.0913    2.9539    0.0000 C   0  0  0  0  0  0  0  0  0  0  0  0
    9.4414    1.4954    0.0000 C   0  0  0  0  0  0  0  0  0  0  0  0
  1  2  1  0
  2  3  2  0
  3  4  1  0
  4  5  2  0
  5  6  1  0
  6  7  2  0
  7  8  1  0
  8  9  2  0
  9 10  1  0
 10 11  2  0
 11 12  1  0
 12 13  2  0
 13 14  1  0
 14 15  2  0
 15 16  1  0
 16 17  2  0
 17 18  1  0
 18 19  2  0
 19 20  1  0
 20 21  2  0
 21 22  1  0
 22 23  2  0
 23 24  1  0
 24 25  2  0
 25 26  1  0
 26 27  2  0
 27 28  1  0
 28 29  2  0
 29 30  1  0
 30 31  2  0
 31 32  1  0
 32 33  2  0
 33 34  1  0
 34 35  2  0
 35 36  1  0
 36 37  2  0
 37 38  1  0
 38 39  2  0
 39 40  1  0
 40 41  2  0
 41  2  1  0
M  END
>  <Title>  (966) 
idABLDgen7

$$$$

     RDKit          2D

 37 42  0  0  0  0  0  0  0  0999 V2000
    3.7500   -1.2990    0.0000 C   0  0  0  0  0  0  0  0  0  0  0  0
    3.0000    0.0000    0.0000 O   0  0  0  0  0  0  0  0  0  0  0  0
    1.5000    0.0000    0.0000 C   0  0  0  0  0  0  0  0  0  0  0  0
    0.7500   -1.2990    0.0000 C   0  0  0  0  0  0  0  0  0  0  0  0
   -0.7500   -1.2990    0.0000 C   0  0  0  0  0  0  0  0  0  0  0  0
   -1.5000    0.0000    0.0000 C   0  0  0  0  0  0  0  0  0  0  0  0
   -3.0000    0.0000    0.0000 C   0  0  0  0  0  0  0  0  0  0  0  0
   -3.8817   -1.2135    0.0000 C   0  0  0  0  0  0  0  0  0  0  0  0
   -5.3083   -0.7500    0.0000 N   0  0  0  0  0  0  0  0  0  0  0  0
   -5.3083    0.7500    0.0000 N   0  0  0  0  0  0  0  0  0  0  0  0
   -3.8817    1.2135    0.0000 N   0  0  0  0  0  0  0  0  0  0  0  0
   -3.4182    2.6401    0.0000 C   0  0  0  0  0  0  0  0  0  0  0  0
   -1.9509    2.9520    0.0000 C   0  0  0  0  0  0  0  0  0  0  0  0
   -1.4874    4.3786    0.0000 C   0  0  0  0  0  0  0  0  0  0  0  0
   -2.4911    5.4933    0.0000 C   0  0  0  0  0  0  0  0  0  0  0  0
   -2.0276    6.9199    0.0000 C   0  0  0  0  0  0  0  0  0  0  0  0
   -0.5604    7.2317    0.0000 C   0  0  0  0  0  0  0  0  0  0  0  0
   -0.0968    8.6583    0.0000 C   0  0  0  0  0  0  0  0  0  0  0  0
   -1.1005    9.7730    0.0000 C   0  0  0  0  0  0  0  0  0  0  0  0
   -0.6370   11.1996    0.0000 C   0  0  0  0  0  0  0  0  0  0  0  0
    0.8302   11.5115    0.0000 C   0  0  0  0  0  0  0  0  0  0  0  0
    1.2937   12.9381    0.0000 C   0  0  0  0  0  0  0  0  0  0  0  0
    0.2901   14.0528    0.0000 C   0  0  0  0  0  0  0  0  0  0  0  0
   -1.1772   13.7409    0.0000 C   0  0  0  0  0  0  0  0  0  0  0  0
   -1.6407   12.3143    0.0000 C   0  0  0  0  0  0  0  0  0  0  0  0
   -2.5677    9.4612    0.0000 C   0  0  0  0  0  0  0  0  0  0  0  0
   -3.0313    8.0346    0.0000 C   0  0  0  0  0  0  0  0  0  0  0  0
   -3.9583    5.1814    0.0000 C   0  0  0  0  0  0  0  0  0  0  0  0
   -4.4218    3.7548    0.0000 C   0  0  0  0  0  0  0  0  0  0  0  0
   -5.8891    3.4430    0.0000 C   0  0  0  0  0  0  0  0  0  0  0  0
   -6.8928    4.5577    0.0000 C   0  0  0  0  0  0  0  0  0  0  0  0
   -8.3600    4.2458    0.0000 C   0  0  0  0  0  0  0  0  0  0  0  0
   -8.8235    2.8192    0.0000 C   0  0  0  0  0  0  0  0  0  0  0  0
   -7.8198    1.7045    0.0000 C   0  0  0  0  0  0  0  0  0  0  0  0
   -6.3526    2.0164    0.0000 C   0  0  0  0  0  0  0  0  0  0  0  0
   -0.7500    1.2990    0.0000 C   0  0  0  0  0  0  0  0  0  0  0  0
    0.7500    1.2990    0.0000 C   0  0  0  0  0  0  0  0  0  0  0  0
  1  2  1  0
  2  3  1  0
  3  4  2  0
  4  5  1  0
  5  6  2  0
  6  7  1  0
  7  8  2  0
  8  9  1  0
  9 10  2  0
 10 11  1  0
 11 12  1  0
 12 13  2  0
 13 14  1  0
 14 15  2  0
 15 16  1  0
 16 17  2  0
 17 18  1  0
 18 19  2  0
 19 20  1  0
 20 21  2  0
 21 22  1  0
 22 23  2  0
 23 24  1  0
 24 25  2  0
 19 26  1  0
 26 27  2  0
 15 28  1  0
 28 29  2  0
 29 30  1  0
 30 31  2  0
 31 32  1  0
 32 33  2  0
 33 34  1  0
 34 35  2  0
  6 36  1  0
 36 37  2  0
 37  3  1  0
 11  7  1  0
 29 12  1  0
 35 30  1  0
 27 16  1  0
 25 20  1  0
M  END
>  <Title>  (967) 
idABLEgen7

$$$$

     RDKit          2D

 37 41  0  0  0  0  0  0  0  0999 V2000
   -9.7531   -1.2990    0.0000 C   0  0  0  0  0  0  0  0  0  0  0  0
   -9.0031    0.0000    0.0000 O   0  0  0  0  0  0  0  0  0  0  0  0
   -7.5031    0.0000    0.0000 C   0  0  0  0  0  0  0  0  0  0  0  0
   -6.9291   -1.3858    0.0000 C   0  0  0  0  0  0  0  0  0  0  0  0
   -5.5433   -1.9598    0.0000 C   0  0  0  0  0  0  0  0  0  0  0  0
   -4.1575   -1.3858    0.0000 C   0  0  0  0  0  0  0  0  0  0  0  0
   -3.5834    0.0000    0.0000 C   0  0  0  0  0  0  0  0  0  0  0  0
   -4.1575    1.3858    0.0000 C   0  0  0  0  0  0  0  0  0  0  0  0
   -5.5433    1.9598    0.0000 C   0  0  0  0  0  0  0  0  0  0  0  0
   -6.9291    1.3858    0.0000 C   0  0  0  0  0  0  0  0  0  0  0  0
   -2.7716    1.9598    0.0000 N   0  0  0  0  0  0  0  0  0  0  0  0
   -1.3858    1.3858    0.0000 N   0  0  0  0  0  0  0  0  0  0  0  0
   -0.8118   -0.0000    0.0000 N   0  0  0  0  0  0  0  0  0  0  0  0
   -1.3858   -1.3858    0.0000 N   0  0  0  0  0  0  0  0  0  0  0  0
   -2.7716   -1.9598    0.0000 N   0  0  0  0  0  0  0  0  0  0  0  0
   -2.7716   -3.4598    0.0000 C   0  0  0  0  0  0  0  0  0  0  0  0
   -4.0707   -4.2098    0.0000 C   0  0  0  0  0  0  0  0  0  0  0  0
   -4.0707   -5.7098    0.0000 C   0  0  0  0  0  0  0  0  0  0  0  0
   -2.7716   -6.4598    0.0000 C   0  0  0  0  0  0  0  0  0  0  0  0
   -2.7716   -7.9598    0.0000 C   0  0  0  0  0  0  0  0  0  0  0  0
   -4.0707   -8.7098    0.0000 C   0  0  0  0  0  0  0  0  0  0  0  0
   -4.0707  -10.2098    0.0000 C   0  0  0  0  0  0  0  0  0  0  0  0
   -2.7716  -10.9598    0.0000 C   0  0  0  0  0  0  0  0  0  0  0  0
   -1.4726  -10.2098    0.0000 C   0  0  0  0  0  0  0  0  0  0  0  0
   -1.4726   -8.7098    0.0000 C   0  0  0  0  0  0  0  0  0  0  0  0
   -1.4726   -5.7098    0.0000 C   0  0  0  0  0  0  0  0  0  0  0  0
   -1.4726   -4.2098    0.0000 C   0  0  0  0  0  0  0  0  0  0  0  0
   -0.1736   -3.4598    0.0000 C   0  0  0  0  0  0  0  0  0  0  0  0
    1.1255   -4.2098    0.0000 C   0  0  0  0  0  0  0  0  0  0  0  0
    2.4245   -3.4598    0.0000 C   0  0  0  0  0  0  0  0  0  0  0  0
    2.4245   -1.9598    0.0000 C   0  0  0  0  0  0  0  0  0  0  0  0
    3.7236   -1.2098    0.0000 C   0  0  0  0  0  0  0  0  0  0  0  0
    3.7236    0.2902    0.0000 O   0  0  0  0  0  0  0  0  0  0  0  0
    5.0226   -1.9598    0.0000 N   0  0  0  0  0  0  0  0  0  0  0  0
    6.3216   -1.2098    0.0000 O   0  0  0  0  0  0  0  0  0  0  0  0
    1.1255   -1.2098    0.0000 C   0  0  0  0  0  0  0  0  0  0  0  0
   -0.1736   -1.9598    0.0000 C   0  0  0  0  0  0  0  0  0  0  0  0
  1  2  1  0
  2  3  1  0
  3  4  2  0
  4  5  1  0
  5  6  2  0
  6  7  1  0
  7  8  2  0
  8  9  1  0
  9 10  2  0
  8 11  1  0
 11 12  2  0
 12 13  1  0
 13 14  2  0
 14 15  1  0
 15 16  1  0
 16 17  2  0
 17 18  1  0
 18 19  2  0
 19 20  1  0
 20 21  2  0
 21 22  1  0
 22 23  2  0
 23 24  1  0
 24 25  2  0
 19 26  1  0
 26 27  2  0
 27 28  1  0
 28 29  2  0
 29 30  1  0
 30 31  2  0
 31 32  1  0
 32 33  2  0
 32 34  1  0
 34 35  1  0
 31 36  1  0
 36 37  1  0
 10  3  1  0
 27 16  1  0
 37 28  1  0
 15  6  1  0
 25 20  1  0
M  END
>  <Title>  (968) 
idABLFgen7

$$$$

     RDKit          2D

 51 58  0  0  0  0  0  0  0  0999 V2000
    3.0000    0.0000    0.0000 C   0  0  0  0  0  0  0  0  0  0  0  0
    1.5000    0.0000    0.0000 C   0  0  0  0  0  0  0  0  0  0  0  0
    0.7500   -1.2990    0.0000 C   0  0  0  0  0  0  0  0  0  0  0  0
   -0.7500   -1.2990    0.0000 C   0  0  0  0  0  0  0  0  0  0  0  0
   -1.5000    0.0000    0.0000 C   0  0  0  0  0  0  0  0  0  0  0  0
   -3.0000    0.0000    0.0000 C   0  0  0  0  0  0  0  0  0  0  0  0
   -3.7500   -1.2990    0.0000 O   0  0  0  0  0  0  0  0  0  0  0  0
   -3.7500    1.2990    0.0000 N   0  0  0  0  0  0  0  0  0  0  0  0
   -5.2500    1.2990    0.0000 C   0  0  0  0  0  0  0  0  0  0  0  0
   -6.1317    0.0855    0.0000 N   0  0  0  0  0  0  0  0  0  0  0  0
   -7.5583    0.5490    0.0000 N   0  0  0  0  0  0  0  0  0  0  0  0
   -7.5583    2.0490    0.0000 N   0  0  0  0  0  0  0  0  0  0  0  0
   -6.1317    2.5126    0.0000 N   0  0  0  0  0  0  0  0  0  0  0  0
   -5.6682    3.9391    0.0000 C   0  0  0  0  0  0  0  0  0  0  0  0
   -4.2009    4.2510    0.0000 C   0  0  0  0  0  0  0  0  0  0  0  0
   -3.7374    5.6776    0.0000 C   0  0  0  0  0  0  0  0  0  0  0  0
   -4.7411    6.7923    0.0000 C   0  0  0  0  0  0  0  0  0  0  0  0
   -4.2776    8.2189    0.0000 C   0  0  0  0  0  0  0  0  0  0  0  0
   -5.1593    9.4324    0.0000 N   0  0  0  0  0  0  0  0  0  0  0  0
   -4.2776   10.6460    0.0000 N   0  0  0  0  0  0  0  0  0  0  0  0
   -2.8510   10.1824    0.0000 N   0  0  0  0  0  0  0  0  0  0  0  0
   -2.8510    8.6824    0.0000 N   0  0  0  0  0  0  0  0  0  0  0  0
   -1.6375    7.8008    0.0000 C   0  0  0  0  0  0  0  0  0  0  0  0
   -1.7943    6.3090    0.0000 C   0  0  0  0  0  0  0  0  0  0  0  0
   -0.5807    5.4273    0.0000 C   0  0  0  0  0  0  0  0  0  0  0  0
    0.7896    6.0374    0.0000 C   0  0  0  0  0  0  0  0  0  0  0  0
    0.9464    7.5292    0.0000 C   0  0  0  0  0  0  0  0  0  0  0  0
   -0.2671    8.4109    0.0000 C   0  0  0  0  0  0  0  0  0  0  0  0
   -0.1104    9.9026    0.0000 C   0  0  0  0  0  0  0  0  0  0  0  0
    1.2600   10.5127    0.0000 C   0  0  0  0  0  0  0  0  0  0  0  0
    1.4168   12.0045    0.0000 C   0  0  0  0  0  0  0  0  0  0  0  0
    0.2032   12.8862    0.0000 C   0  0  0  0  0  0  0  0  0  0  0  0
   -1.1671   12.2761    0.0000 C   0  0  0  0  0  0  0  0  0  0  0  0
   -1.3239   10.7843    0.0000 C   0  0  0  0  0  0  0  0  0  0  0  0
   -6.2083    6.4805    0.0000 C   0  0  0  0  0  0  0  0  0  0  0  0
   -6.6718    5.0539    0.0000 C   0  0  0  0  0  0  0  0  0  0  0  0
   -8.1391    4.7420    0.0000 C   0  0  0  0  0  0  0  0  0  0  0  0
   -9.1428    5.8567    0.0000 C   0  0  0  0  0  0  0  0  0  0  0  0
  -10.6100    5.5448    0.0000 C   0  0  0  0  0  0  0  0  0  0  0  0
  -11.0735    4.1183    0.0000 C   0  0  0  0  0  0  0  0  0  0  0  0
  -12.5407    3.8064    0.0000 C   0  0  0  0  0  0  0  0  0  0  0  0
  -13.5444    4.9211    0.0000 C   0  0  0  0  0  0  0  0  0  0  0  0
  -15.0117    4.6092    0.0000 C   0  0  0  0  0  0  0  0  0  0  0  0
  -15.4752    3.1827    0.0000 C   0  0  0  0  0  0  0  0  0  0  0  0
  -14.4715    2.0679    0.0000 C   0  0  0  0  0  0  0  0  0  0  0  0
  -13.0043    2.3798    0.0000 C   0  0  0  0  0  0  0  0  0  0  0  0
  -10.0698    3.0035    0.0000 C   0  0  0  0  0  0  0  0  0  0  0  0
  -10.5333    1.5770    0.0000 O   0  0  0  0  0  0  0  0  0  0  0  0
   -8.6026    3.3154    0.0000 N   0  0  0  0  0  0  0  0  0  0  0  0
   -0.7500    1.2990    0.0000 C   0  0  0  0  0  0  0  0  0  0  0  0
    0.7500    1.2990    0.0000 C   0  0  0  0  0  0  0  0  0  0  0  0
  1  2  1  0
  2  3  2  0
  3  4  1  0
  4  5  2  0
  5  6  1  0
  6  7  2  0
  6  8  1  0
  8  9  1  0
  9 10  2  0
 10 11  1  0
 11 12  2  0
 12 13  1  0
 13 14  1  0
 14 15  2  0
 15 16  1  0
 16 17  2  0
 17 18  1  0
 18 19  2  0
 19 20  1  0
 20 21  2  0
 21 22  1  0
 22 23  1  0
 23 24  2  0
 24 25  1  0
 25 26  2  0
 26 27  1  0
 27 28  2  0
 28 29  1  0
 29 30  2  0
 30 31  1  0
 31 32  2  0
 32 33  1  0
 33 34  2  0
 17 35  1  0
 35 36  2  0
 36 37  1  0
 37 38  2  0
 38 39  1  0
 39 40  2  0
 40 41  1  0
 41 42  2  0
 42 43  1  0
 43 44  2  0
 44 45  1  0
 45 46  2  0
 40 47  1  0
 47 48  2  0
 47 49  1  0
  5 50  1  0
 50 51  2  0
 51  2  1  0
 13  9  1  0
 36 14  1  0
 49 37  1  0
 22 18  1  0
 28 23  1  0
 34 29  1  0
 46 41  1  0
M  END
>  <Title>  (969) 
idABLGgen7

$$$$

     RDKit          2D

 13 13  0  0  0  0  0  0  0  0999 V2000
    6.0000   -2.5981    0.0000 C   0  0  0  0  0  0  0  0  0  0  0  0
    5.2500   -1.2990    0.0000 C   0  0  0  0  0  0  0  0  0  0  0  0
    6.0000    0.0000    0.0000 O   0  0  0  0  0  0  0  0  0  0  0  0
    3.7500   -1.2990    0.0000 N   0  0  0  0  0  0  0  0  0  0  0  0
    3.0000    0.0000    0.0000 C   0  0  0  0  0  0  0  0  0  0  0  0
    3.7500    1.2990    0.0000 O   0  0  0  0  0  0  0  0  0  0  0  0
    1.5000    0.0000    0.0000 C   0  0  0  0  0  0  0  0  0  0  0  0
    0.7500   -1.2990    0.0000 C   0  0  0  0  0  0  0  0  0  0  0  0
   -0.7500   -1.2990    0.0000 C   0  0  0  0  0  0  0  0  0  0  0  0
   -1.5000    0.0000    0.0000 C   0  0  0  0  0  0  0  0  0  0  0  0
   -0.7500    1.2990    0.0000 C   0  0  0  0  0  0  0  0  0  0  0  0
    0.7500    1.2990    0.0000 C   0  0  0  0  0  0  0  0  0  0  0  0
    1.5000    2.5981    0.0000 O   0  0  0  0  0  0  0  0  0  0  0  0
  1  2  1  0
  2  3  2  0
  2  4  1  0
  4  5  1  0
  5  6  2  0
  5  7  1  0
  7  8  1  0
  8  9  1  0
  9 10  2  0
 10 11  1  0
 11 12  2  0
 12 13  1  0
 12  7  1  0
M  END
>  <Title>  (970) 
idABLHgen7

$$$$

     RDKit          2D

 26 27  0  0  0  0  0  0  0  0999 V2000
    4.8705    0.0000    0.0000 O   0  0  0  0  0  0  0  0  0  0  0  0
    3.3705    0.0000    0.0000 C   0  0  0  0  0  0  0  0  0  0  0  0
    3.0367   -1.4624    0.0000 C   0  0  0  0  0  0  0  0  0  0  0  0
    2.1015   -2.6351    0.0000 C   0  0  0  0  0  0  0  0  0  0  0  0
    0.7500   -3.2860    0.0000 C   0  0  0  0  0  0  0  0  0  0  0  0
   -0.7500   -3.2860    0.0000 C   0  0  0  0  0  0  0  0  0  0  0  0
   -2.1015   -2.6351    0.0000 C   0  0  0  0  0  0  0  0  0  0  0  0
   -3.0367   -1.4624    0.0000 C   0  0  0  0  0  0  0  0  0  0  0  0
   -3.3705    0.0000    0.0000 C   0  0  0  0  0  0  0  0  0  0  0  0
   -3.0367    1.4624    0.0000 C   0  0  0  0  0  0  0  0  0  0  0  0
   -2.1015    2.6351    0.0000 C   0  0  0  0  0  0  0  0  0  0  0  0
   -0.7500    3.2860    0.0000 C   0  0  0  0  0  0  0  0  0  0  0  0
   -1.0838    4.7484    0.0000 C   0  0  0  0  0  0  0  0  0  0  0  0
    0.0158    5.7686    0.0000 C   0  0  0  0  0  0  0  0  0  0  0  0
   -0.3180    7.2310    0.0000 C   0  0  0  0  0  0  0  0  0  0  0  0
    0.7816    8.2513    0.0000 C   0  0  0  0  0  0  0  0  0  0  0  0
    0.4478    9.7137    0.0000 C   0  0  0  0  0  0  0  0  0  0  0  0
    1.5474   10.7339    0.0000 C   0  0  0  0  0  0  0  0  0  0  0  0
    2.9807   10.2918    0.0000 C   0  0  0  0  0  0  0  0  0  0  0  0
    4.0803   11.3120    0.0000 C   0  0  0  0  0  0  0  0  0  0  0  0
    3.7465   12.7744    0.0000 C   0  0  0  0  0  0  0  0  0  0  0  0
    2.3132   13.2166    0.0000 C   0  0  0  0  0  0  0  0  0  0  0  0
    1.2136   12.1963    0.0000 C   0  0  0  0  0  0  0  0  0  0  0  0
    0.7500    3.2860    0.0000 C   0  0  0  0  0  0  0  0  0  0  0  0
    2.1015    2.6351    0.0000 C   0  0  0  0  0  0  0  0  0  0  0  0
    3.0367    1.4624    0.0000 C   0  0  0  0  0  0  0  0  0  0  0  0
  1  2  1  0
  2  3  2  0
  3  4  1  0
  4  5  2  0
  5  6  1  0
  6  7  2  0
  7  8  1  0
  8  9  2  0
  9 10  1  0
 10 11  2  0
 11 12  1  0
 12 13  1  0
 13 14  1  0
 14 15  2  3
 15 16  1  0
 16 17  2  3
 17 18  1  0
 18 19  2  0
 19 20  1  0
 20 21  2  0
 21 22  1  0
 22 23  2  0
 12 24  2  0
 24 25  1  0
 25 26  2  0
 26  2  1  0
 23 18  1  0
M  END
>  <Title>  (971) 
idABLIgen7

$$$$

     RDKit          2D

 28 31  0  0  0  0  0  0  0  0999 V2000
    3.2286   -0.0000    0.0000 C   0  0  0  0  0  0  0  0  0  0  0  0
    1.7286    0.0000    0.0000 C   0  0  0  0  0  0  0  0  0  0  0  0
    1.0777    1.3515    0.0000 C   0  0  0  0  0  0  0  0  0  0  0  0
   -0.3846    1.6852    0.0000 C   0  0  0  0  0  0  0  0  0  0  0  0
   -1.5574    0.7500    0.0000 C   0  0  0  0  0  0  0  0  0  0  0  0
   -1.5574   -0.7500    0.0000 C   0  0  0  0  0  0  0  0  0  0  0  0
   -0.3846   -1.6852    0.0000 C   0  0  0  0  0  0  0  0  0  0  0  0
   -0.7184   -3.1476    0.0000 C   0  0  0  0  0  0  0  0  0  0  0  0
    0.3812   -4.1679    0.0000 O   0  0  0  0  0  0  0  0  0  0  0  0
   -2.1518   -3.5898    0.0000 N   0  0  0  0  0  0  0  0  0  0  0  0
   -2.4856   -5.0522    0.0000 C   0  0  0  0  0  0  0  0  0  0  0  0
   -1.4987   -6.1818    0.0000 N   0  0  0  0  0  0  0  0  0  0  0  0
   -2.2680   -7.4694    0.0000 N   0  0  0  0  0  0  0  0  0  0  0  0
   -3.7304   -7.1357    0.0000 N   0  0  0  0  0  0  0  0  0  0  0  0
   -3.8649   -5.6417    0.0000 N   0  0  0  0  0  0  0  0  0  0  0  0
   -5.1525   -4.8723    0.0000 C   0  0  0  0  0  0  0  0  0  0  0  0
   -5.1301   -3.3725    0.0000 C   0  0  0  0  0  0  0  0  0  0  0  0
   -6.4178   -2.6032    0.0000 C   0  0  0  0  0  0  0  0  0  0  0  0
   -7.7279   -3.3336    0.0000 C   0  0  0  0  0  0  0  0  0  0  0  0
   -9.0156   -2.5643    0.0000 C   0  0  0  0  0  0  0  0  0  0  0  0
   -8.9931   -1.0645    0.0000 C   0  0  0  0  0  0  0  0  0  0  0  0
  -10.2808   -0.2951    0.0000 C   0  0  0  0  0  0  0  0  0  0  0  0
  -11.5909   -1.0256    0.0000 C   0  0  0  0  0  0  0  0  0  0  0  0
  -11.6133   -2.5254    0.0000 C   0  0  0  0  0  0  0  0  0  0  0  0
  -10.3257   -3.2948    0.0000 C   0  0  0  0  0  0  0  0  0  0  0  0
   -7.7503   -4.8335    0.0000 C   0  0  0  0  0  0  0  0  0  0  0  0
   -6.4626   -5.6028    0.0000 C   0  0  0  0  0  0  0  0  0  0  0  0
    1.0777   -1.3515    0.0000 N   0  0  0  0  0  0  0  0  0  0  0  0
  1  2  1  0
  2  3  1  0
  3  4  1  0
  4  5  1  0
  5  6  1  0
  6  7  1  0
  7  8  1  0
  8  9  2  0
  8 10  1  0
 10 11  1  0
 11 12  2  0
 12 13  1  0
 13 14  2  0
 14 15  1  0
 15 16  1  0
 16 17  2  0
 17 18  1  0
 18 19  2  0
 19 20  1  0
 20 21  2  0
 21 22  1  0
 22 23  2  0
 23 24  1  0
 24 25  2  0
 19 26  1  0
 26 27  2  0
  7 28  1  0
 28  2  1  0
 15 11  1  0
 27 16  1  0
 25 20  1  0
M  END
>  <Title>  (972) 
idABLJgen7

$$$$

     RDKit          2D

 12 12  0  0  0  0  0  0  0  0999 V2000
    4.1621    0.0000    0.0000 O   0  0  0  0  0  0  0  0  0  0  0  0
    2.6621    0.0000    0.0000 C   0  0  0  0  0  0  0  0  0  0  0  0
    2.2395    1.4392    0.0000 C   0  0  0  0  0  0  0  0  0  0  0  0
    1.1059    2.4215    0.0000 C   0  0  0  0  0  0  0  0  0  0  0  0
   -0.3789    2.6350    0.0000 C   0  0  0  0  0  0  0  0  0  0  0  0
   -1.7433    2.0119    0.0000 C   0  0  0  0  0  0  0  0  0  0  0  0
   -2.5543    0.7500    0.0000 C   0  0  0  0  0  0  0  0  0  0  0  0
   -2.5543   -0.7500    0.0000 C   0  0  0  0  0  0  0  0  0  0  0  0
   -1.7433   -2.0119    0.0000 C   0  0  0  0  0  0  0  0  0  0  0  0
   -0.3789   -2.6350    0.0000 C   0  0  0  0  0  0  0  0  0  0  0  0
    1.1059   -2.4215    0.0000 C   0  0  0  0  0  0  0  0  0  0  0  0
    2.2395   -1.4392    0.0000 C   0  0  0  0  0  0  0  0  0  0  0  0
  1  2  2  0
  2  3  1  0
  3  4  2  0
  4  5  1  0
  5  6  2  0
  6  7  1  0
  7  8  2  0
  8  9  1  0
  9 10  2  0
 10 11  1  0
 11 12  1  0
 12  2  1  0
M  END
>  <Title>  (973) 
idABLKgen7

$$$$

     RDKit          2D

 29 33  0  0  0  0  0  0  0  0999 V2000
    3.0000    0.0000    0.0000 C   0  0  0  0  0  0  0  0  0  0  0  0
    1.5000    0.0000    0.0000 C   0  0  0  0  0  0  0  0  0  0  0  0
    0.7500   -1.2990    0.0000 C   0  0  0  0  0  0  0  0  0  0  0  0
   -0.7500   -1.2990    0.0000 C   0  0  0  0  0  0  0  0  0  0  0  0
   -1.5000    0.0000    0.0000 C   0  0  0  0  0  0  0  0  0  0  0  0
   -3.0000    0.0000    0.0000 C   0  0  0  0  0  0  0  0  0  0  0  0
   -3.8817   -1.2135    0.0000 N   0  0  0  0  0  0  0  0  0  0  0  0
   -5.3083   -0.7500    0.0000 N   0  0  0  0  0  0  0  0  0  0  0  0
   -5.3083    0.7500    0.0000 N   0  0  0  0  0  0  0  0  0  0  0  0
   -3.8817    1.2135    0.0000 N   0  0  0  0  0  0  0  0  0  0  0  0
   -3.4182    2.6401    0.0000 C   0  0  0  0  0  0  0  0  0  0  0  0
   -1.9509    2.9520    0.0000 C   0  0  0  0  0  0  0  0  0  0  0  0
   -1.4874    4.3786    0.0000 C   0  0  0  0  0  0  0  0  0  0  0  0
   -2.4911    5.4933    0.0000 C   0  0  0  0  0  0  0  0  0  0  0  0
   -2.0276    6.9199    0.0000 C   0  0  0  0  0  0  0  0  0  0  0  0
   -2.9093    8.1334    0.0000 N   0  0  0  0  0  0  0  0  0  0  0  0
   -2.0276    9.3469    0.0000 N   0  0  0  0  0  0  0  0  0  0  0  0
   -0.6010    8.8834    0.0000 N   0  0  0  0  0  0  0  0  0  0  0  0
   -0.6010    7.3834    0.0000 N   0  0  0  0  0  0  0  0  0  0  0  0
    0.6125    6.5017    0.0000 C   0  0  0  0  0  0  0  0  0  0  0  0
    0.4557    5.0099    0.0000 C   0  0  0  0  0  0  0  0  0  0  0  0
    1.6693    4.1283    0.0000 C   0  0  0  0  0  0  0  0  0  0  0  0
    3.0396    4.7384    0.0000 C   0  0  0  0  0  0  0  0  0  0  0  0
    3.1964    6.2301    0.0000 C   0  0  0  0  0  0  0  0  0  0  0  0
    1.9829    7.1118    0.0000 C   0  0  0  0  0  0  0  0  0  0  0  0
   -3.9583    5.1814    0.0000 C   0  0  0  0  0  0  0  0  0  0  0  0
   -4.4218    3.7548    0.0000 C   0  0  0  0  0  0  0  0  0  0  0  0
   -0.7500    1.2990    0.0000 C   0  0  0  0  0  0  0  0  0  0  0  0
    0.7500    1.2990    0.0000 N   0  0  0  0  0  0  0  0  0  0  0  0
  1  2  1  0
  2  3  2  0
  3  4  1  0
  4  5  2  0
  5  6  1  0
  6  7  2  0
  7  8  1  0
  8  9  2  0
  9 10  1  0
 10 11  1  0
 11 12  2  0
 12 13  1  0
 13 14  2  0
 14 15  1  0
 15 16  2  0
 16 17  1  0
 17 18  2  0
 18 19  1  0
 19 20  1  0
 20 21  2  0
 21 22  1  0
 22 23  2  0
 23 24  1  0
 24 25  2  0
 14 26  1  0
 26 27  1  0
  5 28  1  0
 28 29  1  0
 29  2  1  0
 10  6  1  0
 27 11  1  0
 19 15  1  0
 25 20  1  0
M  END
>  <Title>  (974) 
idABLLgen7

$$$$

     RDKit          2D

 27 30  0  0  0  0  0  0  0  0999 V2000
   11.1150    2.5315    0.0000 C   0  0  0  0  0  0  0  0  0  0  0  0
    9.6478    2.8434    0.0000 O   0  0  0  0  0  0  0  0  0  0  0  0
    8.6441    1.7287    0.0000 C   0  0  0  0  0  0  0  0  0  0  0  0
    7.1523    1.8855    0.0000 C   0  0  0  0  0  0  0  0  0  0  0  0
    6.5422    0.5152    0.0000 C   0  0  0  0  0  0  0  0  0  0  0  0
    7.6569   -0.4885    0.0000 C   0  0  0  0  0  0  0  0  0  0  0  0
    7.5001   -1.9803    0.0000 C   0  0  0  0  0  0  0  0  0  0  0  0
    8.7136   -2.8620    0.0000 O   0  0  0  0  0  0  0  0  0  0  0  0
    6.1298   -2.5904    0.0000 N   0  0  0  0  0  0  0  0  0  0  0  0
    5.9730   -4.0822    0.0000 C   0  0  0  0  0  0  0  0  0  0  0  0
    7.0877   -5.0859    0.0000 N   0  0  0  0  0  0  0  0  0  0  0  0
    6.4776   -6.4562    0.0000 N   0  0  0  0  0  0  0  0  0  0  0  0
    4.9858   -6.2994    0.0000 N   0  0  0  0  0  0  0  0  0  0  0  0
    4.6740   -4.8322    0.0000 N   0  0  0  0  0  0  0  0  0  0  0  0
    3.3037   -4.2221    0.0000 C   0  0  0  0  0  0  0  0  0  0  0  0
    2.0046   -4.9721    0.0000 C   0  0  0  0  0  0  0  0  0  0  0  0
    0.8899   -3.9684    0.0000 C   0  0  0  0  0  0  0  0  0  0  0  0
    1.5000   -2.5981    0.0000 C   0  0  0  0  0  0  0  0  0  0  0  0
    0.7500   -1.2990    0.0000 C   0  0  0  0  0  0  0  0  0  0  0  0
    1.5000    0.0000    0.0000 C   0  0  0  0  0  0  0  0  0  0  0  0
    0.7500    1.2990    0.0000 C   0  0  0  0  0  0  0  0  0  0  0  0
   -0.7500    1.2990    0.0000 C   0  0  0  0  0  0  0  0  0  0  0  0
   -1.5000    0.0000    0.0000 C   0  0  0  0  0  0  0  0  0  0  0  0
   -0.7500   -1.2990    0.0000 C   0  0  0  0  0  0  0  0  0  0  0  0
    2.9918   -2.7549    0.0000 C   0  0  0  0  0  0  0  0  0  0  0  0
    3.9955   -1.6402    0.0000 O   0  0  0  0  0  0  0  0  0  0  0  0
    8.9559    0.2615    0.0000 C   0  0  0  0  0  0  0  0  0  0  0  0
  1  2  1  0
  2  3  1  0
  3  4  2  0
  4  5  1  0
  5  6  2  0
  6  7  1  0
  7  8  2  0
  7  9  1  0
  9 10  1  0
 10 11  2  0
 11 12  1  0
 12 13  2  0
 13 14  1  0
 14 15  1  0
 15 16  2  0
 16 17  1  0
 17 18  2  0
 18 19  1  0
 19 20  2  0
 20 21  1  0
 21 22  2  0
 22 23  1  0
 23 24  2  0
 18 25  1  0
 25 26  2  0
  6 27  1  0
 27  3  1  0
 14 10  1  0
 25 15  1  0
 24 19  1  0
M  END
>  <Title>  (975) 
idABLMgen7

$$$$

     RDKit          2D

 30 32  0  0  0  0  0  0  0  0999 V2000
    4.3978    0.0000    0.0000 C   0  0  0  0  0  0  0  0  0  0  0  0
    2.8978    0.0000    0.0000 C   0  0  0  0  0  0  0  0  0  0  0  0
    2.5095   -1.4489    0.0000 C   0  0  0  0  0  0  0  0  0  0  0  0
    1.4489   -2.5095    0.0000 C   0  0  0  0  0  0  0  0  0  0  0  0
   -0.0000   -2.8978    0.0000 C   0  0  0  0  0  0  0  0  0  0  0  0
   -1.4489   -2.5095    0.0000 C   0  0  0  0  0  0  0  0  0  0  0  0
   -2.5095   -1.4489    0.0000 C   0  0  0  0  0  0  0  0  0  0  0  0
   -2.8978    0.0000    0.0000 C   0  0  0  0  0  0  0  0  0  0  0  0
   -2.5095    1.4489    0.0000 C   0  0  0  0  0  0  0  0  0  0  0  0
   -1.4489    2.5095    0.0000 C   0  0  0  0  0  0  0  0  0  0  0  0
    0.0000    2.8978    0.0000 C   0  0  0  0  0  0  0  0  0  0  0  0
    0.0000    4.3978    0.0000 C   0  0  0  0  0  0  0  0  0  0  0  0
   -1.2990    5.1478    0.0000 O   0  0  0  0  0  0  0  0  0  0  0  0
    1.2990    5.1478    0.0000 N   0  0  0  0  0  0  0  0  0  0  0  0
    1.2990    6.6478    0.0000 C   0  0  0  0  0  0  0  0  0  0  0  0
    0.0855    7.5295    0.0000 N   0  0  0  0  0  0  0  0  0  0  0  0
    0.5490    8.9560    0.0000 N   0  0  0  0  0  0  0  0  0  0  0  0
    2.0490    8.9560    0.0000 N   0  0  0  0  0  0  0  0  0  0  0  0
    2.5126    7.5295    0.0000 N   0  0  0  0  0  0  0  0  0  0  0  0
    3.9391    7.0659    0.0000 C   0  0  0  0  0  0  0  0  0  0  0  0
    4.2510    5.5987    0.0000 C   0  0  0  0  0  0  0  0  0  0  0  0
    5.6776    5.1352    0.0000 C   0  0  0  0  0  0  0  0  0  0  0  0
    6.7923    6.1389    0.0000 C   0  0  0  0  0  0  0  0  0  0  0  0
    8.2189    5.6754    0.0000 C   0  0  0  0  0  0  0  0  0  0  0  0
    6.4805    7.6061    0.0000 C   0  0  0  0  0  0  0  0  0  0  0  0
    7.5952    8.6098    0.0000 O   0  0  0  0  0  0  0  0  0  0  0  0
    5.0539    8.0696    0.0000 N   0  0  0  0  0  0  0  0  0  0  0  0
    1.4489    2.5095    0.0000 C   0  0  0  0  0  0  0  0  0  0  0  0
    2.1989    3.8086    0.0000 O   0  0  0  0  0  0  0  0  0  0  0  0
    2.5095    1.4489    0.0000 N   0  0  0  0  0  0  0  0  0  0  0  0
  1  2  1  0
  2  3  2  0
  3  4  1  0
  4  5  2  0
  5  6  1  0
  6  7  2  0
  7  8  1  0
  8  9  2  0
  9 10  1  0
 10 11  2  0
 11 12  1  0
 12 13  2  0
 12 14  1  0
 14 15  1  0
 15 16  2  0
 16 17  1  0
 17 18  2  0
 18 19  1  0
 19 20  1  0
 20 21  2  0
 21 22  1  0
 22 23  2  0
 23 24  1  0
 23 25  1  0
 25 26  2  0
 25 27  1  0
 11 28  1  0
 28 29  2  0
 28 30  1  0
 30  2  1  0
 19 15  1  0
 27 20  1  0
M  END
>  <Title>  (976) 
idABLNgen7

$$$$

     RDKit          2D

 31 35  0  0  0  0  0  0  0  0999 V2000
    3.7500   -1.2990    0.0000 C   0  0  0  0  0  0  0  0  0  0  0  0
    3.0000    0.0000    0.0000 O   0  0  0  0  0  0  0  0  0  0  0  0
    1.5000    0.0000    0.0000 C   0  0  0  0  0  0  0  0  0  0  0  0
    0.7500   -1.2990    0.0000 C   0  0  0  0  0  0  0  0  0  0  0  0
   -0.7500   -1.2990    0.0000 C   0  0  0  0  0  0  0  0  0  0  0  0
   -1.5000    0.0000    0.0000 C   0  0  0  0  0  0  0  0  0  0  0  0
   -3.0000    0.0000    0.0000 C   0  0  0  0  0  0  0  0  0  0  0  0
   -3.8817   -1.2135    0.0000 N   0  0  0  0  0  0  0  0  0  0  0  0
   -5.3083   -0.7500    0.0000 N   0  0  0  0  0  0  0  0  0  0  0  0
   -5.3083    0.7500    0.0000 N   0  0  0  0  0  0  0  0  0  0  0  0
   -3.8817    1.2135    0.0000 N   0  0  0  0  0  0  0  0  0  0  0  0
   -3.4182    2.6401    0.0000 C   0  0  0  0  0  0  0  0  0  0  0  0
   -1.9509    2.9520    0.0000 C   0  0  0  0  0  0  0  0  0  0  0  0
   -1.4874    4.3786    0.0000 C   0  0  0  0  0  0  0  0  0  0  0  0
   -2.4911    5.4933    0.0000 C   0  0  0  0  0  0  0  0  0  0  0  0
   -2.0276    6.9199    0.0000 C   0  0  0  0  0  0  0  0  0  0  0  0
   -0.5604    7.2317    0.0000 C   0  0  0  0  0  0  0  0  0  0  0  0
   -0.0968    8.6583    0.0000 C   0  0  0  0  0  0  0  0  0  0  0  0
   -1.1005    9.7730    0.0000 C   0  0  0  0  0  0  0  0  0  0  0  0
   -2.5677    9.4612    0.0000 C   0  0  0  0  0  0  0  0  0  0  0  0
   -3.0313    8.0346    0.0000 C   0  0  0  0  0  0  0  0  0  0  0  0
   -4.4985    7.7227    0.0000 C   0  0  0  0  0  0  0  0  0  0  0  0
   -5.5022    8.8374    0.0000 C   0  0  0  0  0  0  0  0  0  0  0  0
   -6.9694    8.5256    0.0000 C   0  0  0  0  0  0  0  0  0  0  0  0
   -7.4329    7.0990    0.0000 C   0  0  0  0  0  0  0  0  0  0  0  0
   -6.4292    5.9843    0.0000 C   0  0  0  0  0  0  0  0  0  0  0  0
   -4.9620    6.2961    0.0000 C   0  0  0  0  0  0  0  0  0  0  0  0
   -3.9583    5.1814    0.0000 C   0  0  0  0  0  0  0  0  0  0  0  0
   -4.4218    3.7548    0.0000 C   0  0  0  0  0  0  0  0  0  0  0  0
   -0.7500    1.2990    0.0000 C   0  0  0  0  0  0  0  0  0  0  0  0
    0.7500    1.2990    0.0000 C   0  0  0  0  0  0  0  0  0  0  0  0
  1  2  1  0
  2  3  1  0
  3  4  2  0
  4  5  1  0
  5  6  2  0
  6  7  1  0
  7  8  2  0
  8  9  1  0
  9 10  2  0
 10 11  1  0
 11 12  1  0
 12 13  2  0
 13 14  1  0
 14 15  2  0
 15 16  1  0
 16 17  2  0
 17 18  1  0
 18 19  2  0
 19 20  1  0
 20 21  2  0
 21 22  1  0
 22 23  2  0
 23 24  1  0
 24 25  2  0
 25 26  1  0
 26 27  2  0
 15 28  1  0
 28 29  2  0
  6 30  1  0
 30 31  2  0
 31  3  1  0
 11  7  1  0
 29 12  1  0
 21 16  1  0
 27 22  1  0
M  END
>  <Title>  (977) 
idABLOgen7

$$$$

     RDKit          2D

 36 40  0  0  0  0  0  0  0  0999 V2000
    3.0000    0.0000    0.0000 C   0  0  0  0  0  0  0  0  0  0  0  0
    1.5000    0.0000    0.0000 C   0  0  0  0  0  0  0  0  0  0  0  0
    0.7500   -1.2990    0.0000 C   0  0  0  0  0  0  0  0  0  0  0  0
   -0.7500   -1.2990    0.0000 C   0  0  0  0  0  0  0  0  0  0  0  0
   -1.5000    0.0000    0.0000 C   0  0  0  0  0  0  0  0  0  0  0  0
   -3.0000    0.0000    0.0000 C   0  0  0  0  0  0  0  0  0  0  0  0
   -3.7500   -1.2990    0.0000 O   0  0  0  0  0  0  0  0  0  0  0  0
   -3.7500    1.2990    0.0000 N   0  0  0  0  0  0  0  0  0  0  0  0
   -5.2500    1.2990    0.0000 C   0  0  0  0  0  0  0  0  0  0  0  0
   -6.1317    0.0855    0.0000 N   0  0  0  0  0  0  0  0  0  0  0  0
   -7.5583    0.5490    0.0000 N   0  0  0  0  0  0  0  0  0  0  0  0
   -7.5583    2.0490    0.0000 N   0  0  0  0  0  0  0  0  0  0  0  0
   -6.1317    2.5126    0.0000 N   0  0  0  0  0  0  0  0  0  0  0  0
   -5.6682    3.9391    0.0000 C   0  0  0  0  0  0  0  0  0  0  0  0
   -4.2009    4.2510    0.0000 C   0  0  0  0  0  0  0  0  0  0  0  0
   -3.7374    5.6776    0.0000 C   0  0  0  0  0  0  0  0  0  0  0  0
   -4.7411    6.7923    0.0000 C   0  0  0  0  0  0  0  0  0  0  0  0
   -4.2776    8.2189    0.0000 C   0  0  0  0  0  0  0  0  0  0  0  0
   -5.2813    9.3336    0.0000 O   0  0  0  0  0  0  0  0  0  0  0  0
   -2.8104    8.5308    0.0000 N   0  0  0  0  0  0  0  0  0  0  0  0
   -2.3468    9.9574    0.0000 C   0  0  0  0  0  0  0  0  0  0  0  0
   -3.2285   11.1709    0.0000 N   0  0  0  0  0  0  0  0  0  0  0  0
   -2.3468   12.3844    0.0000 N   0  0  0  0  0  0  0  0  0  0  0  0
   -0.9202   11.9209    0.0000 N   0  0  0  0  0  0  0  0  0  0  0  0
   -0.9202   10.4209    0.0000 N   0  0  0  0  0  0  0  0  0  0  0  0
    0.2933    9.5392    0.0000 C   0  0  0  0  0  0  0  0  0  0  0  0
    0.1365    8.0474    0.0000 C   0  0  0  0  0  0  0  0  0  0  0  0
    1.3500    7.1657    0.0000 C   0  0  0  0  0  0  0  0  0  0  0  0
    2.7203    7.7758    0.0000 C   0  0  0  0  0  0  0  0  0  0  0  0
    2.8771    9.2676    0.0000 C   0  0  0  0  0  0  0  0  0  0  0  0
    1.6636   10.1493    0.0000 C   0  0  0  0  0  0  0  0  0  0  0  0
   -6.2083    6.4805    0.0000 C   0  0  0  0  0  0  0  0  0  0  0  0
   -6.6718    5.0539    0.0000 C   0  0  0  0  0  0  0  0  0  0  0  0
   -0.7500    1.2990    0.0000 C   0  0  0  0  0  0  0  0  0  0  0  0
   -1.5000    2.5981    0.0000 O   0  0  0  0  0  0  0  0  0  0  0  0
    0.7500    1.2990    0.0000 N   0  0  0  0  0  0  0  0  0  0  0  0
  1  2  1  0
  2  3  2  0
  3  4  1  0
  4  5  2  0
  5  6  1  0
  6  7  2  0
  6  8  1  0
  8  9  1  0
  9 10  2  0
 10 11  1  0
 11 12  2  0
 12 13  1  0
 13 14  1  0
 14 15  2  0
 15 16  1  0
 16 17  2  0
 17 18  1  0
 18 19  2  0
 18 20  1  0
 20 21  1  0
 21 22  2  0
 22 23  1  0
 23 24  2  0
 24 25  1  0
 25 26  1  0
 26 27  2  0
 27 28  1  0
 28 29  2  0
 29 30  1  0
 30 31  2  0
 17 32  1  0
 32 33  2  0
  5 34  1  0
 34 35  2  0
 34 36  1  0
 36  2  1  0
 13  9  1  0
 33 14  1  0
 25 21  1  0
 31 26  1  0
M  END
>  <Title>  (978) 
idABLPgen7

$$$$

     RDKit          2D

 13 14  0  0  0  0  0  0  0  0999 V2000
    1.4115    6.1843    0.0000 C   0  0  0  0  0  0  0  0  0  0  0  0
    1.0777    4.7219    0.0000 C   0  0  0  0  0  0  0  0  0  0  0  0
    2.2505    3.7867    0.0000 C   0  0  0  0  0  0  0  0  0  0  0  0
    2.2505    2.2867    0.0000 C   0  0  0  0  0  0  0  0  0  0  0  0
    1.0777    1.3515    0.0000 C   0  0  0  0  0  0  0  0  0  0  0  0
    1.7286    0.0000    0.0000 C   0  0  0  0  0  0  0  0  0  0  0  0
    1.0777   -1.3515    0.0000 C   0  0  0  0  0  0  0  0  0  0  0  0
   -0.3846   -1.6852    0.0000 C   0  0  0  0  0  0  0  0  0  0  0  0
   -1.5574   -0.7500    0.0000 C   0  0  0  0  0  0  0  0  0  0  0  0
   -1.5574    0.7500    0.0000 C   0  0  0  0  0  0  0  0  0  0  0  0
   -0.3846    1.6852    0.0000 C   0  0  0  0  0  0  0  0  0  0  0  0
   -1.0355    3.0367    0.0000 N   0  0  0  0  0  0  0  0  0  0  0  0
   -0.3846    4.3881    0.0000 N   0  0  0  0  0  0  0  0  0  0  0  0
  1  2  1  0
  2  3  2  0
  3  4  1  0
  4  5  2  0
  5  6  1  0
  6  7  2  0
  7  8  1  0
  8  9  2  0
  9 10  1  0
 10 11  2  0
 11 12  1  0
 12 13  2  0
 13  2  1  0
 11  5  1  0
M  END
>  <Title>  (979) 
idABLQgen7

$$$$

     RDKit          2D

 28 30  0  0  0  0  0  0  0  0999 V2000
    3.0000   -5.1962    0.0000 C   0  0  0  0  0  0  0  0  0  0  0  0
    3.7500   -3.8971    0.0000 C   0  0  0  0  0  0  0  0  0  0  0  0
    5.2500   -3.8971    0.0000 C   0  0  0  0  0  0  0  0  0  0  0  0
    3.0000   -2.5981    0.0000 C   0  0  0  0  0  0  0  0  0  0  0  0
    3.7500   -1.2990    0.0000 C   0  0  0  0  0  0  0  0  0  0  0  0
    5.2500   -1.2990    0.0000 C   0  0  0  0  0  0  0  0  0  0  0  0
    3.0000    0.0000    0.0000 C   0  0  0  0  0  0  0  0  0  0  0  0
    1.5000    0.0000    0.0000 C   0  0  0  0  0  0  0  0  0  0  0  0
    0.7500   -1.2990    0.0000 C   0  0  0  0  0  0  0  0  0  0  0  0
   -0.7500   -1.2990    0.0000 C   0  0  0  0  0  0  0  0  0  0  0  0
   -1.5000    0.0000    0.0000 C   0  0  0  0  0  0  0  0  0  0  0  0
   -3.0000    0.0000    0.0000 C   0  0  0  0  0  0  0  0  0  0  0  0
   -3.8817   -1.2135    0.0000 N   0  0  0  0  0  0  0  0  0  0  0  0
   -5.3083   -0.7500    0.0000 N   0  0  0  0  0  0  0  0  0  0  0  0
   -5.3083    0.7500    0.0000 N   0  0  0  0  0  0  0  0  0  0  0  0
   -3.8817    1.2135    0.0000 N   0  0  0  0  0  0  0  0  0  0  0  0
   -3.4182    2.6401    0.0000 C   0  0  0  0  0  0  0  0  0  0  0  0
   -1.9509    2.9520    0.0000 C   0  0  0  0  0  0  0  0  0  0  0  0
   -1.4874    4.3786    0.0000 C   0  0  0  0  0  0  0  0  0  0  0  0
   -2.4911    5.4933    0.0000 C   0  0  0  0  0  0  0  0  0  0  0  0
   -2.0276    6.9199    0.0000 C   0  0  0  0  0  0  0  0  0  0  0  0
   -3.0313    8.0346    0.0000 O   0  0  0  0  0  0  0  0  0  0  0  0
   -0.5604    7.2317    0.0000 N   0  0  0  0  0  0  0  0  0  0  0  0
   -0.0968    8.6583    0.0000 O   0  0  0  0  0  0  0  0  0  0  0  0
   -3.9583    5.1814    0.0000 C   0  0  0  0  0  0  0  0  0  0  0  0
   -4.4218    3.7548    0.0000 C   0  0  0  0  0  0  0  0  0  0  0  0
   -0.7500    1.2990    0.0000 C   0  0  0  0  0  0  0  0  0  0  0  0
    0.7500    1.2990    0.0000 C   0  0  0  0  0  0  0  0  0  0  0  0
  1  2  1  0
  2  3  1  0
  2  4  1  0
  4  5  1  0
  5  6  1  0
  5  7  1  0
  7  8  1  0
  8  9  1  0
  9 10  2  0
 10 11  1  0
 11 12  1  0
 12 13  2  0
 13 14  1  0
 14 15  2  0
 15 16  1  0
 16 17  1  0
 17 18  2  0
 18 19  1  0
 19 20  2  0
 20 21  1  0
 21 22  2  0
 21 23  1  0
 23 24  1  0
 20 25  1  0
 25 26  1  0
 11 27  1  0
 27 28  1  0
 28  8  1  0
 16 12  1  0
 26 17  1  0
M  END
>  <Title>  (980) 
idABLRgen7

$$$$

     RDKit          2D

 42 46  0  0  0  0  0  0  0  0999 V2000
    6.0000   -2.5981    0.0000 C   0  0  0  0  0  0  0  0  0  0  0  0
    5.2500   -1.2990    0.0000 C   0  0  0  0  0  0  0  0  0  0  0  0
    6.0000    0.0000    0.0000 O   0  0  0  0  0  0  0  0  0  0  0  0
    3.7500   -1.2990    0.0000 N   0  0  0  0  0  0  0  0  0  0  0  0
    3.0000    0.0000    0.0000 C   0  0  0  0  0  0  0  0  0  0  0  0
    3.7500    1.2990    0.0000 O   0  0  0  0  0  0  0  0  0  0  0  0
    1.5000    0.0000    0.0000 C   0  0  0  0  0  0  0  0  0  0  0  0
    0.7500   -1.2990    0.0000 C   0  0  0  0  0  0  0  0  0  0  0  0
   -0.7500   -1.2990    0.0000 C   0  0  0  0  0  0  0  0  0  0  0  0
   -1.5000    0.0000    0.0000 C   0  0  0  0  0  0  0  0  0  0  0  0
   -3.0000    0.0000    0.0000 C   0  0  0  0  0  0  0  0  0  0  0  0
   -3.7500   -1.2990    0.0000 O   0  0  0  0  0  0  0  0  0  0  0  0
   -3.7500    1.2990    0.0000 N   0  0  0  0  0  0  0  0  0  0  0  0
   -5.2500    1.2990    0.0000 C   0  0  0  0  0  0  0  0  0  0  0  0
   -6.1317    0.0855    0.0000 N   0  0  0  0  0  0  0  0  0  0  0  0
   -7.5583    0.5490    0.0000 N   0  0  0  0  0  0  0  0  0  0  0  0
   -7.5583    2.0490    0.0000 N   0  0  0  0  0  0  0  0  0  0  0  0
   -6.1317    2.5126    0.0000 N   0  0  0  0  0  0  0  0  0  0  0  0
   -5.6682    3.9391    0.0000 C   0  0  0  0  0  0  0  0  0  0  0  0
   -6.5498    5.1527    0.0000 C   0  0  0  0  0  0  0  0  0  0  0  0
   -5.6682    6.3662    0.0000 C   0  0  0  0  0  0  0  0  0  0  0  0
   -4.2416    5.9027    0.0000 C   0  0  0  0  0  0  0  0  0  0  0  0
   -3.0280    6.7844    0.0000 C   0  0  0  0  0  0  0  0  0  0  0  0
   -3.1848    8.2761    0.0000 O   0  0  0  0  0  0  0  0  0  0  0  0
   -1.6577    6.1742    0.0000 N   0  0  0  0  0  0  0  0  0  0  0  0
   -0.4442    7.0559    0.0000 C   0  0  0  0  0  0  0  0  0  0  0  0
   -0.4442    8.5559    0.0000 C   0  0  0  0  0  0  0  0  0  0  0  0
    0.9824    9.0195    0.0000 C   0  0  0  0  0  0  0  0  0  0  0  0
    1.8641    7.8059    0.0000 C   0  0  0  0  0  0  0  0  0  0  0  0
    3.3641    7.8059    0.0000 C   0  0  0  0  0  0  0  0  0  0  0  0
    4.1141    6.5069    0.0000 C   0  0  0  0  0  0  0  0  0  0  0  0
    5.6141    6.5069    0.0000 C   0  0  0  0  0  0  0  0  0  0  0  0
    6.3641    7.8059    0.0000 C   0  0  0  0  0  0  0  0  0  0  0  0
    5.6141    9.1050    0.0000 C   0  0  0  0  0  0  0  0  0  0  0  0
    4.1141    9.1050    0.0000 C   0  0  0  0  0  0  0  0  0  0  0  0
    0.9824    6.5924    0.0000 C   0  0  0  0  0  0  0  0  0  0  0  0
    1.4459    5.1658    0.0000 O   0  0  0  0  0  0  0  0  0  0  0  0
   -4.2416    4.4027    0.0000 C   0  0  0  0  0  0  0  0  0  0  0  0
   -3.0280    3.5210    0.0000 O   0  0  0  0  0  0  0  0  0  0  0  0
   -0.7500    1.2990    0.0000 C   0  0  0  0  0  0  0  0  0  0  0  0
   -1.5000    2.5981    0.0000 O   0  0  0  0  0  0  0  0  0  0  0  0
    0.7500    1.2990    0.0000 N   0  0  0  0  0  0  0  0  0  0  0  0
  1  2  1  0
  2  3  2  0
  2  4  1  0
  4  5  1  0
  5  6  2  0
  5  7  1  0
  7  8  1  0
  8  9  1  0
  9 10  2  0
 10 11  1  0
 11 12  2  0
 11 13  1  0
 13 14  1  0
 14 15  2  0
 15 16  1  0
 16 17  2  0
 17 18  1  0
 18 19  1  0
 19 20  2  0
 20 21  1  0
 21 22  2  0
 22 23  1  0
 23 24  2  0
 23 25  1  0
 25 26  1  0
 26 27  2  0
 27 28  1  0
 28 29  2  0
 29 30  1  0
 30 31  2  0
 31 32  1  0
 32 33  2  0
 33 34  1  0
 34 35  2  0
 29 36  1  0
 36 37  2  0
 22 38  1  0
 38 39  2  0
 10 40  1  0
 40 41  2  0
 40 42  1  0
 42  7  1  0
 18 14  1  0
 38 19  1  0
 36 26  1  0
 35 30  1  0
M  END
>  <Title>  (981) 
idABLSgen7

$$$$

     RDKit          2D

 39 44  0  0  0  0  0  0  0  0999 V2000
   -2.6071   -6.6523    0.0000 C   0  0  0  0  0  0  0  0  0  0  0  0
   -2.4503   -5.1606    0.0000 C   0  0  0  0  0  0  0  0  0  0  0  0
   -1.1512   -4.4106    0.0000 C   0  0  0  0  0  0  0  0  0  0  0  0
   -1.4631   -2.9433    0.0000 C   0  0  0  0  0  0  0  0  0  0  0  0
   -2.9549   -2.7865    0.0000 C   0  0  0  0  0  0  0  0  0  0  0  0
   -3.7049   -1.4875    0.0000 C   0  0  0  0  0  0  0  0  0  0  0  0
   -5.2049   -1.4875    0.0000 O   0  0  0  0  0  0  0  0  0  0  0  0
   -2.9549   -0.1885    0.0000 N   0  0  0  0  0  0  0  0  0  0  0  0
   -3.7049    1.1106    0.0000 C   0  0  0  0  0  0  0  0  0  0  0  0
   -5.1967    1.2674    0.0000 N   0  0  0  0  0  0  0  0  0  0  0  0
   -5.5085    2.7346    0.0000 N   0  0  0  0  0  0  0  0  0  0  0  0
   -4.2095    3.4846    0.0000 N   0  0  0  0  0  0  0  0  0  0  0  0
   -3.0948    2.4809    0.0000 N   0  0  0  0  0  0  0  0  0  0  0  0
   -1.6276    2.7928    0.0000 C   0  0  0  0  0  0  0  0  0  0  0  0
   -1.0175    4.1631    0.0000 C   0  0  0  0  0  0  0  0  0  0  0  0
    0.4743    4.0063    0.0000 C   0  0  0  0  0  0  0  0  0  0  0  0
    0.7862    2.5391    0.0000 C   0  0  0  0  0  0  0  0  0  0  0  0
    2.1565    1.9290    0.0000 C   0  0  0  0  0  0  0  0  0  0  0  0
    2.3133    0.4372    0.0000 O   0  0  0  0  0  0  0  0  0  0  0  0
    3.3700    2.8106    0.0000 N   0  0  0  0  0  0  0  0  0  0  0  0
    4.7403    2.2005    0.0000 C   0  0  0  0  0  0  0  0  0  0  0  0
    5.0522    0.7333    0.0000 N   0  0  0  0  0  0  0  0  0  0  0  0
    6.5440    0.5765    0.0000 N   0  0  0  0  0  0  0  0  0  0  0  0
    7.1541    1.9468    0.0000 N   0  0  0  0  0  0  0  0  0  0  0  0
    6.0394    2.9505    0.0000 N   0  0  0  0  0  0  0  0  0  0  0  0
    6.1962    4.4423    0.0000 C   0  0  0  0  0  0  0  0  0  0  0  0
    5.0815    5.4460    0.0000 N   0  0  0  0  0  0  0  0  0  0  0  0
    5.6916    6.8163    0.0000 N   0  0  0  0  0  0  0  0  0  0  0  0
    7.1833    6.6595    0.0000 N   0  0  0  0  0  0  0  0  0  0  0  0
    7.4952    5.1923    0.0000 N   0  0  0  0  0  0  0  0  0  0  0  0
    8.8655    4.5822    0.0000 C   0  0  0  0  0  0  0  0  0  0  0  0
   10.0791    5.4639    0.0000 C   0  0  0  0  0  0  0  0  0  0  0  0
   11.4494    4.8538    0.0000 C   0  0  0  0  0  0  0  0  0  0  0  0
   11.6062    3.3620    0.0000 C   0  0  0  0  0  0  0  0  0  0  0  0
   10.3926    2.4803    0.0000 C   0  0  0  0  0  0  0  0  0  0  0  0
    9.0223    3.0904    0.0000 C   0  0  0  0  0  0  0  0  0  0  0  0
   -0.5129    1.7891    0.0000 C   0  0  0  0  0  0  0  0  0  0  0  0
   -0.6696    0.2973    0.0000 O   0  0  0  0  0  0  0  0  0  0  0  0
   -3.5650   -4.1569    0.0000 C   0  0  0  0  0  0  0  0  0  0  0  0
  1  2  1  0
  2  3  2  0
  3  4  1  0
  4  5  2  0
  5  6  1  0
  6  7  2  0
  6  8  1  0
  8  9  1  0
  9 10  2  0
 10 11  1  0
 11 12  2  0
 12 13  1  0
 13 14  1  0
 14 15  2  0
 15 16  1  0
 16 17  2  0
 17 18  1  0
 18 19  2  0
 18 20  1  0
 20 21  1  0
 21 22  2  0
 22 23  1  0
 23 24  2  0
 24 25  1  0
 25 26  1  0
 26 27  2  0
 27 28  1  0
 28 29  2  0
 29 30  1  0
 30 31  1  0
 31 32  2  0
 32 33  1  0
 33 34  2  0
 34 35  1  0
 35 36  2  0
 17 37  1  0
 37 38  2  0
  5 39  1  0
 39  2  1  0
 13  9  1  0
 37 14  1  0
 25 21  1  0
 30 26  1  0
 36 31  1  0
M  END
>  <Title>  (982) 
idABLTgen7

$$$$

     RDKit          2D

 27 30  0  0  0  0  0  0  0  0999 V2000
    3.0000    0.0000    0.0000 C   0  0  0  0  0  0  0  0  0  0  0  0
    1.5000    0.0000    0.0000 C   0  0  0  0  0  0  0  0  0  0  0  0
    0.7500   -1.2990    0.0000 C   0  0  0  0  0  0  0  0  0  0  0  0
   -0.7500   -1.2990    0.0000 C   0  0  0  0  0  0  0  0  0  0  0  0
   -1.5000    0.0000    0.0000 C   0  0  0  0  0  0  0  0  0  0  0  0
   -3.0000    0.0000    0.0000 C   0  0  0  0  0  0  0  0  0  0  0  0
   -3.8817   -1.2135    0.0000 N   0  0  0  0  0  0  0  0  0  0  0  0
   -5.3083   -0.7500    0.0000 N   0  0  0  0  0  0  0  0  0  0  0  0
   -5.3083    0.7500    0.0000 N   0  0  0  0  0  0  0  0  0  0  0  0
   -3.8817    1.2135    0.0000 N   0  0  0  0  0  0  0  0  0  0  0  0
   -3.4182    2.6401    0.0000 C   0  0  0  0  0  0  0  0  0  0  0  0
   -1.9509    2.9520    0.0000 C   0  0  0  0  0  0  0  0  0  0  0  0
   -1.4874    4.3786    0.0000 C   0  0  0  0  0  0  0  0  0  0  0  0
   -2.4911    5.4933    0.0000 C   0  0  0  0  0  0  0  0  0  0  0  0
   -2.0276    6.9199    0.0000 C   0  0  0  0  0  0  0  0  0  0  0  0
   -3.0313    8.0346    0.0000 O   0  0  0  0  0  0  0  0  0  0  0  0
   -0.5604    7.2317    0.0000 N   0  0  0  0  0  0  0  0  0  0  0  0
   -0.0968    8.6583    0.0000 C   0  0  0  0  0  0  0  0  0  0  0  0
    1.3704    8.9702    0.0000 C   0  0  0  0  0  0  0  0  0  0  0  0
    1.8339   10.3968    0.0000 N   0  0  0  0  0  0  0  0  0  0  0  0
    0.8302   11.5115    0.0000 N   0  0  0  0  0  0  0  0  0  0  0  0
   -0.6370   11.1996    0.0000 C   0  0  0  0  0  0  0  0  0  0  0  0
   -1.1005    9.7730    0.0000 N   0  0  0  0  0  0  0  0  0  0  0  0
   -3.9583    5.1814    0.0000 C   0  0  0  0  0  0  0  0  0  0  0  0
   -4.4218    3.7548    0.0000 C   0  0  0  0  0  0  0  0  0  0  0  0
   -0.7500    1.2990    0.0000 C   0  0  0  0  0  0  0  0  0  0  0  0
    0.7500    1.2990    0.0000 C   0  0  0  0  0  0  0  0  0  0  0  0
  1  2  1  0
  2  3  2  0
  3  4  1  0
  4  5  2  0
  5  6  1  0
  6  7  2  0
  7  8  1  0
  8  9  2  0
  9 10  1  0
 10 11  1  0
 11 12  2  0
 12 13  1  0
 13 14  2  0
 14 15  1  0
 15 16  2  0
 15 17  1  0
 17 18  1  0
 18 19  2  0
 19 20  1  0
 20 21  2  0
 21 22  1  0
 22 23  2  0
 14 24  1  0
 24 25  2  0
  5 26  1  0
 26 27  2  0
 27  2  1  0
 10  6  1  0
 25 11  1  0
 23 18  1  0
M  END
>  <Title>  (983) 
idABLUgen7

$$$$

     RDKit          2D

 35 39  0  0  0  0  0  0  0  0999 V2000
    3.0000    0.0000    0.0000 C   0  0  0  0  0  0  0  0  0  0  0  0
    1.5000    0.0000    0.0000 C   0  0  0  0  0  0  0  0  0  0  0  0
    0.7500   -1.2990    0.0000 C   0  0  0  0  0  0  0  0  0  0  0  0
   -0.7500   -1.2990    0.0000 C   0  0  0  0  0  0  0  0  0  0  0  0
   -1.5000    0.0000    0.0000 C   0  0  0  0  0  0  0  0  0  0  0  0
   -3.0000    0.0000    0.0000 C   0  0  0  0  0  0  0  0  0  0  0  0
   -3.7500    1.2990    0.0000 C   0  0  0  0  0  0  0  0  0  0  0  0
   -5.2500    1.2990    0.0000 C   0  0  0  0  0  0  0  0  0  0  0  0
   -6.0000    2.5981    0.0000 C   0  0  0  0  0  0  0  0  0  0  0  0
   -5.2500    3.8971    0.0000 C   0  0  0  0  0  0  0  0  0  0  0  0
   -6.0000    5.1962    0.0000 C   0  0  0  0  0  0  0  0  0  0  0  0
   -7.5000    5.1962    0.0000 C   0  0  0  0  0  0  0  0  0  0  0  0
   -8.2500    3.8971    0.0000 C   0  0  0  0  0  0  0  0  0  0  0  0
   -7.5000    2.5981    0.0000 C   0  0  0  0  0  0  0  0  0  0  0  0
   -6.0000    0.0000    0.0000 C   0  0  0  0  0  0  0  0  0  0  0  0
   -5.2500   -1.2990    0.0000 C   0  0  0  0  0  0  0  0  0  0  0  0
   -3.7500   -1.2990    0.0000 C   0  0  0  0  0  0  0  0  0  0  0  0
   -3.0000   -2.5981    0.0000 N   0  0  0  0  0  0  0  0  0  0  0  0
   -1.5082   -2.7549    0.0000 N   0  0  0  0  0  0  0  0  0  0  0  0
   -1.1963   -4.2221    0.0000 N   0  0  0  0  0  0  0  0  0  0  0  0
   -2.4954   -4.9721    0.0000 N   0  0  0  0  0  0  0  0  0  0  0  0
   -3.6101   -3.9684    0.0000 C   0  0  0  0  0  0  0  0  0  0  0  0
   -5.0773   -4.2803    0.0000 N   0  0  0  0  0  0  0  0  0  0  0  0
   -5.5409   -5.7068    0.0000 C   0  0  0  0  0  0  0  0  0  0  0  0
   -4.5372   -6.8216    0.0000 O   0  0  0  0  0  0  0  0  0  0  0  0
   -7.0081   -6.0187    0.0000 C   0  0  0  0  0  0  0  0  0  0  0  0
   -7.6182   -7.3890    0.0000 C   0  0  0  0  0  0  0  0  0  0  0  0
   -9.1100   -7.2322    0.0000 C   0  0  0  0  0  0  0  0  0  0  0  0
   -9.4218   -5.7650    0.0000 C   0  0  0  0  0  0  0  0  0  0  0  0
  -10.7921   -5.1549    0.0000 C   0  0  0  0  0  0  0  0  0  0  0  0
   -8.1228   -5.0150    0.0000 N   0  0  0  0  0  0  0  0  0  0  0  0
   -0.7500    1.2990    0.0000 C   0  0  0  0  0  0  0  0  0  0  0  0
   -1.5000    2.5981    0.0000 O   0  0  0  0  0  0  0  0  0  0  0  0
    0.7500    1.2990    0.0000 C   0  0  0  0  0  0  0  0  0  0  0  0
    1.5000    2.5981    0.0000 O   0  0  0  0  0  0  0  0  0  0  0  0
  1  2  1  0
  2  3  2  0
  3  4  1  0
  4  5  2  0
  5  6  1  0
  6  7  2  0
  7  8  1  0
  8  9  1  0
  9 10  2  0
 10 11  1  0
 11 12  2  0
 12 13  1  0
 13 14  2  0
  8 15  2  0
 15 16  1  0
 16 17  2  0
 17 18  1  0
 18 19  1  0
 19 20  2  0
 20 21  1  0
 21 22  2  0
 22 23  1  0
 23 24  1  0
 24 25  2  0
 24 26  1  0
 26 27  2  0
 27 28  1  0
 28 29  2  0
 29 30  1  0
 29 31  1  0
  5 32  1  0
 32 33  2  0
 32 34  1  0
 34 35  2  0
 34  2  1  0
 17  6  1  0
 22 18  1  0
 31 26  1  0
 14  9  1  0
M  END
>  <Title>  (984) 
idABLVgen7

$$$$

     RDKit          2D

 39 45  0  0  0  0  0  0  0  0999 V2000
    3.0000    0.0000    0.0000 C   0  0  0  0  0  0  0  0  0  0  0  0
    1.5000    0.0000    0.0000 C   0  0  0  0  0  0  0  0  0  0  0  0
    0.7500   -1.2990    0.0000 C   0  0  0  0  0  0  0  0  0  0  0  0
   -0.7500   -1.2990    0.0000 C   0  0  0  0  0  0  0  0  0  0  0  0
   -1.5000    0.0000    0.0000 C   0  0  0  0  0  0  0  0  0  0  0  0
   -3.0000    0.0000    0.0000 C   0  0  0  0  0  0  0  0  0  0  0  0
   -3.8817   -1.2135    0.0000 N   0  0  0  0  0  0  0  0  0  0  0  0
   -5.3083   -0.7500    0.0000 N   0  0  0  0  0  0  0  0  0  0  0  0
   -5.3083    0.7500    0.0000 N   0  0  0  0  0  0  0  0  0  0  0  0
   -3.8817    1.2135    0.0000 N   0  0  0  0  0  0  0  0  0  0  0  0
   -3.4182    2.6401    0.0000 C   0  0  0  0  0  0  0  0  0  0  0  0
   -1.9509    2.9520    0.0000 C   0  0  0  0  0  0  0  0  0  0  0  0
   -1.4874    4.3786    0.0000 C   0  0  0  0  0  0  0  0  0  0  0  0
   -2.4911    5.4933    0.0000 C   0  0  0  0  0  0  0  0  0  0  0  0
   -2.0276    6.9199    0.0000 C   0  0  0  0  0  0  0  0  0  0  0  0
   -2.9093    8.1334    0.0000 N   0  0  0  0  0  0  0  0  0  0  0  0
   -2.0276    9.3469    0.0000 N   0  0  0  0  0  0  0  0  0  0  0  0
   -0.6010    8.8834    0.0000 N   0  0  0  0  0  0  0  0  0  0  0  0
   -0.6010    7.3834    0.0000 N   0  0  0  0  0  0  0  0  0  0  0  0
    0.6125    6.5017    0.0000 C   0  0  0  0  0  0  0  0  0  0  0  0
    0.4557    5.0099    0.0000 C   0  0  0  0  0  0  0  0  0  0  0  0
    1.6693    4.1283    0.0000 C   0  0  0  0  0  0  0  0  0  0  0  0
    3.0396    4.7384    0.0000 C   0  0  0  0  0  0  0  0  0  0  0  0
    4.2531    3.8567    0.0000 C   0  0  0  0  0  0  0  0  0  0  0  0
    4.4878    2.3751    0.0000 C   0  0  0  0  0  0  0  0  0  0  0  0
    5.9693    2.6098    0.0000 C   0  0  0  0  0  0  0  0  0  0  0  0
    5.7346    4.0913    0.0000 C   0  0  0  0  0  0  0  0  0  0  0  0
    3.1964    6.2301    0.0000 C   0  0  0  0  0  0  0  0  0  0  0  0
    1.9829    7.1118    0.0000 C   0  0  0  0  0  0  0  0  0  0  0  0
    2.1396    8.6036    0.0000 C   0  0  0  0  0  0  0  0  0  0  0  0
    3.5100    9.2137    0.0000 C   0  0  0  0  0  0  0  0  0  0  0  0
    3.6668   10.7055    0.0000 C   0  0  0  0  0  0  0  0  0  0  0  0
    2.4532   11.5872    0.0000 C   0  0  0  0  0  0  0  0  0  0  0  0
    1.0829   10.9771    0.0000 C   0  0  0  0  0  0  0  0  0  0  0  0
    0.9261    9.4853    0.0000 C   0  0  0  0  0  0  0  0  0  0  0  0
   -3.9583    5.1814    0.0000 C   0  0  0  0  0  0  0  0  0  0  0  0
   -4.4218    3.7548    0.0000 C   0  0  0  0  0  0  0  0  0  0  0  0
   -0.7500    1.2990    0.0000 C   0  0  0  0  0  0  0  0  0  0  0  0
    0.7500    1.2990    0.0000 C   0  0  0  0  0  0  0  0  0  0  0  0
  1  2  1  0
  2  3  2  0
  3  4  1  0
  4  5  2  0
  5  6  1  0
  6  7  2  0
  7  8  1  0
  8  9  2  0
  9 10  1  0
 10 11  1  0
 11 12  2  0
 12 13  1  0
 13 14  2  0
 14 15  1  0
 15 16  2  0
 16 17  1  0
 17 18  2  0
 18 19  1  0
 19 20  1  0
 20 21  2  0
 21 22  1  0
 22 23  2  0
 23 24  1  0
 24 25  2  0
 25 26  1  0
 26 27  2  0
 23 28  1  0
 28 29  2  0
 29 30  1  0
 30 31  2  0
 31 32  1  0
 32 33  2  0
 33 34  1  0
 34 35  2  0
 14 36  1  0
 36 37  2  0
  5 38  1  0
 38 39  2  0
 39  2  1  0
 10  6  1  0
 37 11  1  0
 19 15  1  0
 29 20  1  0
 35 30  1  0
 27 24  1  0
M  END
>  <Title>  (985) 
idABLWgen7

$$$$

     RDKit          2D

 35 40  0  0  0  0  0  0  0  0999 V2000
    3.0000    0.0000    0.0000 C   0  0  0  0  0  0  0  0  0  0  0  0
    1.5000    0.0000    0.0000 C   0  0  0  0  0  0  0  0  0  0  0  0
    0.7500   -1.2990    0.0000 C   0  0  0  0  0  0  0  0  0  0  0  0
   -0.7500   -1.2990    0.0000 C   0  0  0  0  0  0  0  0  0  0  0  0
   -1.5000    0.0000    0.0000 C   0  0  0  0  0  0  0  0  0  0  0  0
   -3.0000    0.0000    0.0000 C   0  0  0  0  0  0  0  0  0  0  0  0
   -3.8817   -1.2135    0.0000 C   0  0  0  0  0  0  0  0  0  0  0  0
   -5.3083   -0.7500    0.0000 N   0  0  0  0  0  0  0  0  0  0  0  0
   -5.3083    0.7500    0.0000 N   0  0  0  0  0  0  0  0  0  0  0  0
   -3.8817    1.2135    0.0000 N   0  0  0  0  0  0  0  0  0  0  0  0
   -3.4182    2.6401    0.0000 C   0  0  0  0  0  0  0  0  0  0  0  0
   -1.9509    2.9520    0.0000 C   0  0  0  0  0  0  0  0  0  0  0  0
   -1.4874    4.3786    0.0000 C   0  0  0  0  0  0  0  0  0  0  0  0
   -2.4911    5.4933    0.0000 C   0  0  0  0  0  0  0  0  0  0  0  0
   -2.0276    6.9199    0.0000 C   0  0  0  0  0  0  0  0  0  0  0  0
   -2.9093    8.1334    0.0000 N   0  0  0  0  0  0  0  0  0  0  0  0
   -2.0276    9.3469    0.0000 N   0  0  0  0  0  0  0  0  0  0  0  0
   -0.6010    8.8834    0.0000 N   0  0  0  0  0  0  0  0  0  0  0  0
   -0.6010    7.3834    0.0000 N   0  0  0  0  0  0  0  0  0  0  0  0
    0.6125    6.5017    0.0000 C   0  0  0  0  0  0  0  0  0  0  0  0
    0.4557    5.0099    0.0000 C   0  0  0  0  0  0  0  0  0  0  0  0
    1.6693    4.1283    0.0000 C   0  0  0  0  0  0  0  0  0  0  0  0
    3.0396    4.7384    0.0000 C   0  0  0  0  0  0  0  0  0  0  0  0
    3.1964    6.2301    0.0000 C   0  0  0  0  0  0  0  0  0  0  0  0
    1.9829    7.1118    0.0000 C   0  0  0  0  0  0  0  0  0  0  0  0
   -3.9583    5.1814    0.0000 C   0  0  0  0  0  0  0  0  0  0  0  0
   -4.4218    3.7548    0.0000 C   0  0  0  0  0  0  0  0  0  0  0  0
   -5.8891    3.4430    0.0000 C   0  0  0  0  0  0  0  0  0  0  0  0
   -6.8928    4.5577    0.0000 C   0  0  0  0  0  0  0  0  0  0  0  0
   -8.3600    4.2458    0.0000 C   0  0  0  0  0  0  0  0  0  0  0  0
   -8.8235    2.8192    0.0000 C   0  0  0  0  0  0  0  0  0  0  0  0
   -7.8198    1.7045    0.0000 C   0  0  0  0  0  0  0  0  0  0  0  0
   -6.3526    2.0164    0.0000 C   0  0  0  0  0  0  0  0  0  0  0  0
   -0.7500    1.2990    0.0000 N   0  0  0  0  0  0  0  0  0  0  0  0
    0.7500    1.2990    0.0000 N   0  0  0  0  0  0  0  0  0  0  0  0
  1  2  1  0
  2  3  2  0
  3  4  1  0
  4  5  2  0
  5  6  1  0
  6  7  2  0
  7  8  1  0
  8  9  2  0
  9 10  1  0
 10 11  1  0
 11 12  2  0
 12 13  1  0
 13 14  2  0
 14 15  1  0
 15 16  2  0
 16 17  1  0
 17 18  2  0
 18 19  1  0
 19 20  1  0
 20 21  2  0
 21 22  1  0
 22 23  2  0
 23 24  1  0
 24 25  2  0
 14 26  1  0
 26 27  2  0
 27 28  1  0
 28 29  2  0
 29 30  1  0
 30 31  2  0
 31 32  1  0
 32 33  2  0
  5 34  1  0
 34 35  2  0
 35  2  1  0
 10  6  1  0
 27 11  1  0
 33 28  1  0
 19 15  1  0
 25 20  1  0
M  END
>  <Title>  (986) 
idABLXgen7

$$$$

     RDKit          2D

 42 48  0  0  0  0  0  0  0  0999 V2000
    3.0000    0.0000    0.0000 C   0  0  0  0  0  0  0  0  0  0  0  0
    1.5000    0.0000    0.0000 C   0  0  0  0  0  0  0  0  0  0  0  0
    0.7500    1.2990    0.0000 C   0  0  0  0  0  0  0  0  0  0  0  0
   -0.7500    1.2990    0.0000 C   0  0  0  0  0  0  0  0  0  0  0  0
   -1.5000    0.0000    0.0000 C   0  0  0  0  0  0  0  0  0  0  0  0
   -3.0000    0.0000    0.0000 C   0  0  0  0  0  0  0  0  0  0  0  0
   -3.8817   -1.2135    0.0000 N   0  0  0  0  0  0  0  0  0  0  0  0
   -5.3083   -0.7500    0.0000 N   0  0  0  0  0  0  0  0  0  0  0  0
   -5.3083    0.7500    0.0000 N   0  0  0  0  0  0  0  0  0  0  0  0
   -3.8817    1.2135    0.0000 N   0  0  0  0  0  0  0  0  0  0  0  0
   -3.4182    2.6401    0.0000 C   0  0  0  0  0  0  0  0  0  0  0  0
   -1.9509    2.9520    0.0000 C   0  0  0  0  0  0  0  0  0  0  0  0
   -1.4874    4.3786    0.0000 C   0  0  0  0  0  0  0  0  0  0  0  0
   -2.4911    5.4933    0.0000 C   0  0  0  0  0  0  0  0  0  0  0  0
   -2.0276    6.9199    0.0000 C   0  0  0  0  0  0  0  0  0  0  0  0
   -2.9093    8.1334    0.0000 N   0  0  0  0  0  0  0  0  0  0  0  0
   -2.0276    9.3469    0.0000 N   0  0  0  0  0  0  0  0  0  0  0  0
   -0.6010    8.8834    0.0000 N   0  0  0  0  0  0  0  0  0  0  0  0
   -0.6010    7.3834    0.0000 N   0  0  0  0  0  0  0  0  0  0  0  0
    0.6125    6.5017    0.0000 C   0  0  0  0  0  0  0  0  0  0  0  0
    0.4557    5.0099    0.0000 C   0  0  0  0  0  0  0  0  0  0  0  0
    1.6693    4.1283    0.0000 C   0  0  0  0  0  0  0  0  0  0  0  0
    3.0396    4.7384    0.0000 C   0  0  0  0  0  0  0  0  0  0  0  0
    4.2531    3.8567    0.0000 C   0  0  0  0  0  0  0  0  0  0  0  0
    4.0963    2.3649    0.0000 C   0  0  0  0  0  0  0  0  0  0  0  0
    5.3098    1.4832    0.0000 C   0  0  0  0  0  0  0  0  0  0  0  0
    6.6802    2.0933    0.0000 C   0  0  0  0  0  0  0  0  0  0  0  0
    6.8370    3.5851    0.0000 C   0  0  0  0  0  0  0  0  0  0  0  0
    5.6234    4.4668    0.0000 C   0  0  0  0  0  0  0  0  0  0  0  0
    3.1964    6.2301    0.0000 C   0  0  0  0  0  0  0  0  0  0  0  0
    1.9829    7.1118    0.0000 C   0  0  0  0  0  0  0  0  0  0  0  0
    2.1396    8.6036    0.0000 C   0  0  0  0  0  0  0  0  0  0  0  0
    3.5100    9.2137    0.0000 C   0  0  0  0  0  0  0  0  0  0  0  0
    3.6668   10.7055    0.0000 C   0  0  0  0  0  0  0  0  0  0  0  0
    2.4532   11.5872    0.0000 C   0  0  0  0  0  0  0  0  0  0  0  0
    1.0829   10.9771    0.0000 C   0  0  0  0  0  0  0  0  0  0  0  0
    0.9261    9.4853    0.0000 C   0  0  0  0  0  0  0  0  0  0  0  0
   -3.9583    5.1814    0.0000 C   0  0  0  0  0  0  0  0  0  0  0  0
   -4.4218    3.7548    0.0000 C   0  0  0  0  0  0  0  0  0  0  0  0
   -0.7500   -1.2990    0.0000 C   0  0  0  0  0  0  0  0  0  0  0  0
   -1.5000   -2.5981    0.0000 O   0  0  0  0  0  0  0  0  0  0  0  0
    0.7500   -1.2990    0.0000 N   0  0  0  0  0  0  0  0  0  0  0  0
  1  2  1  0
  2  3  2  0
  3  4  1  0
  4  5  2  0
  5  6  1  0
  6  7  2  0
  7  8  1  0
  8  9  2  0
  9 10  1  0
 10 11  1  0
 11 12  2  0
 12 13  1  0
 13 14  2  0
 14 15  1  0
 15 16  2  0
 16 17  1  0
 17 18  2  0
 18 19  1  0
 19 20  1  0
 20 21  2  0
 21 22  1  0
 22 23  2  0
 23 24  1  0
 24 25  2  0
 25 26  1  0
 26 27  2  0
 27 28  1  0
 28 29  2  0
 23 30  1  0
 30 31  2  0
 31 32  1  0
 32 33  2  0
 33 34  1  0
 34 35  2  0
 35 36  1  0
 36 37  2  0
 14 38  1  0
 38 39  2  0
  5 40  1  0
 40 41  2  0
 40 42  1  0
 42  2  1  0
 10  6  1  0
 39 11  1  0
 19 15  1  0
 31 20  1  0
 37 32  1  0
 29 24  1  0
M  END
>  <Title>  (987) 
idABLYgen7

$$$$

     RDKit          2D

 28 30  0  0  0  0  0  0  0  0999 V2000
    3.2286   -0.0000    0.0000 C   0  0  0  0  0  0  0  0  0  0  0  0
    1.7286    0.0000    0.0000 C   0  0  0  0  0  0  0  0  0  0  0  0
    1.0777    1.3515    0.0000 C   0  0  0  0  0  0  0  0  0  0  0  0
   -0.3846    1.6852    0.0000 C   0  0  0  0  0  0  0  0  0  0  0  0
   -1.5574    0.7500    0.0000 C   0  0  0  0  0  0  0  0  0  0  0  0
   -2.9088    1.4008    0.0000 C   0  0  0  0  0  0  0  0  0  0  0  0
   -3.0209    2.8966    0.0000 C   0  0  0  0  0  0  0  0  0  0  0  0
   -4.3724    3.5475    0.0000 C   0  0  0  0  0  0  0  0  0  0  0  0
   -5.6118    2.7025    0.0000 C   0  0  0  0  0  0  0  0  0  0  0  0
   -6.9632    3.3533    0.0000 C   0  0  0  0  0  0  0  0  0  0  0  0
   -5.4997    1.2067    0.0000 C   0  0  0  0  0  0  0  0  0  0  0  0
   -6.7390    0.3617    0.0000 O   0  0  0  0  0  0  0  0  0  0  0  0
   -4.1482    0.5558    0.0000 N   0  0  0  0  0  0  0  0  0  0  0  0
   -1.5574   -0.7500    0.0000 C   0  0  0  0  0  0  0  0  0  0  0  0
   -2.9088   -1.4008    0.0000 C   0  0  0  0  0  0  0  0  0  0  0  0
   -4.1482   -0.5558    0.0000 O   0  0  0  0  0  0  0  0  0  0  0  0
   -3.0209   -2.8966    0.0000 N   0  0  0  0  0  0  0  0  0  0  0  0
   -4.3724   -3.5475    0.0000 C   0  0  0  0  0  0  0  0  0  0  0  0
   -4.4845   -5.0433    0.0000 C   0  0  0  0  0  0  0  0  0  0  0  0
   -5.8359   -5.6941    0.0000 C   0  0  0  0  0  0  0  0  0  0  0  0
   -7.0753   -4.8491    0.0000 C   0  0  0  0  0  0  0  0  0  0  0  0
   -8.4268   -5.4999    0.0000 C   0  0  0  0  0  0  0  0  0  0  0  0
   -6.9632   -3.3533    0.0000 N   0  0  0  0  0  0  0  0  0  0  0  0
   -5.6118   -2.7025    0.0000 C   0  0  0  0  0  0  0  0  0  0  0  0
   -5.4997   -1.2067    0.0000 O   0  0  0  0  0  0  0  0  0  0  0  0
   -0.3846   -1.6852    0.0000 C   0  0  0  0  0  0  0  0  0  0  0  0
   -0.7184   -3.1476    0.0000 O   0  0  0  0  0  0  0  0  0  0  0  0
    1.0777   -1.3515    0.0000 N   0  0  0  0  0  0  0  0  0  0  0  0
  1  2  1  0
  2  3  2  0
  3  4  1  0
  4  5  2  0
  5  6  1  0
  6  7  2  0
  7  8  1  0
  8  9  2  0
  9 10  1  0
  9 11  1  0
 11 12  2  0
 11 13  1  0
  5 14  1  0
 14 15  1  0
 15 16  2  0
 15 17  1  0
 17 18  1  0
 18 19  2  0
 19 20  1  0
 20 21  2  0
 21 22  1  0
 21 23  1  0
 23 24  1  0
 24 25  2  0
 14 26  1  0
 26 27  2  0
 26 28  1  0
 28  2  1  0
 13  6  1  0
 24 18  1  0
M  END
>  <Title>  (988) 
idABLZgen7

$$$$

     RDKit          2D

 29 32  0  0  0  0  0  0  0  0999 V2000
    3.7500    1.2990    0.0000 C   0  0  0  0  0  0  0  0  0  0  0  0
    3.0000    0.0000    0.0000 O   0  0  0  0  0  0  0  0  0  0  0  0
    1.5000    0.0000    0.0000 C   0  0  0  0  0  0  0  0  0  0  0  0
    0.7500    1.2990    0.0000 C   0  0  0  0  0  0  0  0  0  0  0  0
   -0.7500    1.2990    0.0000 C   0  0  0  0  0  0  0  0  0  0  0  0
   -1.5000    0.0000    0.0000 C   0  0  0  0  0  0  0  0  0  0  0  0
   -3.0000    0.0000    0.0000 C   0  0  0  0  0  0  0  0  0  0  0  0
   -3.8817   -1.2135    0.0000 N   0  0  0  0  0  0  0  0  0  0  0  0
   -5.3083   -0.7500    0.0000 N   0  0  0  0  0  0  0  0  0  0  0  0
   -5.3083    0.7500    0.0000 N   0  0  0  0  0  0  0  0  0  0  0  0
   -3.8817    1.2135    0.0000 N   0  0  0  0  0  0  0  0  0  0  0  0
   -3.4182    2.6401    0.0000 C   0  0  0  0  0  0  0  0  0  0  0  0
   -1.9509    2.9520    0.0000 C   0  0  0  0  0  0  0  0  0  0  0  0
   -1.4874    4.3786    0.0000 C   0  0  0  0  0  0  0  0  0  0  0  0
   -2.4911    5.4933    0.0000 C   0  0  0  0  0  0  0  0  0  0  0  0
   -2.0276    6.9199    0.0000 C   0  0  0  0  0  0  0  0  0  0  0  0
   -3.0313    8.0346    0.0000 O   0  0  0  0  0  0  0  0  0  0  0  0
   -0.5604    7.2317    0.0000 N   0  0  0  0  0  0  0  0  0  0  0  0
   -0.0968    8.6583    0.0000 C   0  0  0  0  0  0  0  0  0  0  0  0
    1.3704    8.9702    0.0000 C   0  0  0  0  0  0  0  0  0  0  0  0
    1.8339   10.3968    0.0000 C   0  0  0  0  0  0  0  0  0  0  0  0
    0.8302   11.5115    0.0000 C   0  0  0  0  0  0  0  0  0  0  0  0
   -0.6370   11.1996    0.0000 C   0  0  0  0  0  0  0  0  0  0  0  0
   -1.1005    9.7730    0.0000 C   0  0  0  0  0  0  0  0  0  0  0  0
   -3.9583    5.1814    0.0000 C   0  0  0  0  0  0  0  0  0  0  0  0
   -4.4218    3.7548    0.0000 C   0  0  0  0  0  0  0  0  0  0  0  0
   -0.7500   -1.2990    0.0000 C   0  0  0  0  0  0  0  0  0  0  0  0
   -1.5000   -2.5981    0.0000 O   0  0  0  0  0  0  0  0  0  0  0  0
    0.7500   -1.2990    0.0000 N   0  0  0  0  0  0  0  0  0  0  0  0
  1  2  1  0
  2  3  1  0
  3  4  2  0
  4  5  1  0
  5  6  2  0
  6  7  1  0
  7  8  2  0
  8  9  1  0
  9 10  2  0
 10 11  1  0
 11 12  1  0
 12 13  2  0
 13 14  1  0
 14 15  2  0
 15 16  1  0
 16 17  2  0
 16 18  1  0
 18 19  1  0
 19 20  2  0
 20 21  1  0
 21 22  2  0
 22 23  1  0
 23 24  2  0
 15 25  1  0
 25 26  2  0
  6 27  1  0
 27 28  2  0
 27 29  1  0
 29  3  1  0
 11  7  1  0
 26 12  1  0
 24 19  1  0
M  END
>  <Title>  (989) 
idABMAgen7

$$$$

     RDKit          2D

 40 45  0  0  0  0  0  0  0  0999 V2000
   -3.9205   -4.3214    0.0000 C   0  0  0  0  0  0  0  0  0  0  0  0
   -2.5242   -4.8694    0.0000 O   0  0  0  0  0  0  0  0  0  0  0  0
   -1.3515   -3.9342    0.0000 C   0  0  0  0  0  0  0  0  0  0  0  0
   -0.0000   -4.5850    0.0000 C   0  0  0  0  0  0  0  0  0  0  0  0
    1.3515   -3.9342    0.0000 C   0  0  0  0  0  0  0  0  0  0  0  0
    1.6852   -2.4718    0.0000 C   0  0  0  0  0  0  0  0  0  0  0  0
    3.1476   -2.1380    0.0000 C   0  0  0  0  0  0  0  0  0  0  0  0
    3.7372   -0.7587    0.0000 N   0  0  0  0  0  0  0  0  0  0  0  0
    5.2311   -0.8932    0.0000 N   0  0  0  0  0  0  0  0  0  0  0  0
    5.5649   -2.3556    0.0000 N   0  0  0  0  0  0  0  0  0  0  0  0
    4.2772   -3.1249    0.0000 N   0  0  0  0  0  0  0  0  0  0  0  0
    4.1428   -4.6189    0.0000 C   0  0  0  0  0  0  0  0  0  0  0  0
    5.2724   -5.6058    0.0000 C   0  0  0  0  0  0  0  0  0  0  0  0
    4.6828   -6.9851    0.0000 C   0  0  0  0  0  0  0  0  0  0  0  0
    3.1889   -6.8506    0.0000 C   0  0  0  0  0  0  0  0  0  0  0  0
    2.2020   -7.9802    0.0000 C   0  0  0  0  0  0  0  0  0  0  0  0
    2.5358   -9.4426    0.0000 C   0  0  0  0  0  0  0  0  0  0  0  0
    1.2481  -10.2120    0.0000 C   0  0  0  0  0  0  0  0  0  0  0  0
    0.1185   -9.2251    0.0000 C   0  0  0  0  0  0  0  0  0  0  0  0
   -1.3439   -9.5588    0.0000 C   0  0  0  0  0  0  0  0  0  0  0  0
    0.7080   -7.8458    0.0000 C   0  0  0  0  0  0  0  0  0  0  0  0
   -0.0613   -6.5581    0.0000 O   0  0  0  0  0  0  0  0  0  0  0  0
    2.8551   -5.3882    0.0000 C   0  0  0  0  0  0  0  0  0  0  0  0
    1.4758   -4.7987    0.0000 O   0  0  0  0  0  0  0  0  0  0  0  0
    0.7500   -1.2990    0.0000 C   0  0  0  0  0  0  0  0  0  0  0  0
    1.5000    0.0000    0.0000 C   0  0  0  0  0  0  0  0  0  0  0  0
    0.7500    1.2990    0.0000 C   0  0  0  0  0  0  0  0  0  0  0  0
   -0.7500    1.2990    0.0000 C   0  0  0  0  0  0  0  0  0  0  0  0
   -1.5000    2.5981    0.0000 C   0  0  0  0  0  0  0  0  0  0  0  0
   -3.0000    2.5981    0.0000 O   0  0  0  0  0  0  0  0  0  0  0  0
   -0.7500    3.8971    0.0000 N   0  0  0  0  0  0  0  0  0  0  0  0
   -1.5000    5.1962    0.0000 C   0  0  0  0  0  0  0  0  0  0  0  0
   -0.7500    6.4952    0.0000 C   0  0  0  0  0  0  0  0  0  0  0  0
   -1.5000    7.7942    0.0000 C   0  0  0  0  0  0  0  0  0  0  0  0
   -3.0000    7.7942    0.0000 C   0  0  0  0  0  0  0  0  0  0  0  0
   -3.7500    6.4952    0.0000 C   0  0  0  0  0  0  0  0  0  0  0  0
   -3.0000    5.1962    0.0000 C   0  0  0  0  0  0  0  0  0  0  0  0
   -1.5000    0.0000    0.0000 C   0  0  0  0  0  0  0  0  0  0  0  0
   -0.7500   -1.2990    0.0000 C   0  0  0  0  0  0  0  0  0  0  0  0
   -1.6852   -2.4718    0.0000 N   0  0  0  0  0  0  0  0  0  0  0  0
  1  2  1  0
  2  3  1  0
  3  4  2  0
  4  5  1  0
  5  6  2  0
  6  7  1  0
  7  8  2  0
  8  9  1  0
  9 10  2  0
 10 11  1  0
 11 12  1  0
 12 13  2  0
 13 14  1  0
 14 15  2  0
 15 16  1  0
 16 17  2  0
 17 18  1  0
 18 19  2  0
 19 20  1  0
 19 21  1  0
 21 22  2  0
 15 23  1  0
 23 24  2  0
  6 25  1  0
 25 26  2  0
 26 27  1  0
 27 28  2  0
 28 29  1  0
 29 30  2  0
 29 31  1  0
 31 32  1  0
 32 33  2  0
 33 34  1  0
 34 35  2  0
 35 36  1  0
 36 37  2  0
 28 38  1  0
 38 39  2  0
 39 40  1  0
 40  3  1  0
 11  7  1  0
 23 12  1  0
 39 25  1  0
 21 16  1  0
 37 32  1  0
M  END
>  <Title>  (990) 
idABMBgen7

$$$$

     RDKit          2D

 21 23  0  0  0  0  0  0  0  0999 V2000
    3.7500   -1.2990    0.0000 C   0  0  0  0  0  0  0  0  0  0  0  0
    3.0000    0.0000    0.0000 O   0  0  0  0  0  0  0  0  0  0  0  0
    1.5000    0.0000    0.0000 C   0  0  0  0  0  0  0  0  0  0  0  0
    0.7500   -1.2990    0.0000 C   0  0  0  0  0  0  0  0  0  0  0  0
   -0.7500   -1.2990    0.0000 C   0  0  0  0  0  0  0  0  0  0  0  0
   -1.5000    0.0000    0.0000 C   0  0  0  0  0  0  0  0  0  0  0  0
   -2.9672    0.3119    0.0000 C   0  0  0  0  0  0  0  0  0  0  0  0
   -4.0819   -0.6918    0.0000 O   0  0  0  0  0  0  0  0  0  0  0  0
   -5.5085   -0.2283    0.0000 C   0  0  0  0  0  0  0  0  0  0  0  0
   -5.8204    1.2389    0.0000 O   0  0  0  0  0  0  0  0  0  0  0  0
   -6.6232   -1.2320    0.0000 N   0  0  0  0  0  0  0  0  0  0  0  0
   -8.0498   -0.7685    0.0000 C   0  0  0  0  0  0  0  0  0  0  0  0
   -8.3617    0.6987    0.0000 C   0  0  0  0  0  0  0  0  0  0  0  0
   -9.7883    1.1623    0.0000 C   0  0  0  0  0  0  0  0  0  0  0  0
  -10.9030    0.1586    0.0000 C   0  0  0  0  0  0  0  0  0  0  0  0
  -10.5911   -1.3086    0.0000 C   0  0  0  0  0  0  0  0  0  0  0  0
   -9.1645   -1.7722    0.0000 C   0  0  0  0  0  0  0  0  0  0  0  0
   -3.1240    1.8037    0.0000 C   0  0  0  0  0  0  0  0  0  0  0  0
   -1.7537    2.4138    0.0000 C   0  0  0  0  0  0  0  0  0  0  0  0
   -0.7500    1.2990    0.0000 C   0  0  0  0  0  0  0  0  0  0  0  0
    0.7500    1.2990    0.0000 O   0  0  0  0  0  0  0  0  0  0  0  0
  1  2  1  0
  2  3  1  0
  3  4  2  0
  4  5  1  0
  5  6  2  0
  6  7  1  0
  7  8  1  0
  8  9  1  0
  9 10  2  0
  9 11  1  0
 11 12  1  0
 12 13  2  0
 13 14  1  0
 14 15  2  0
 15 16  1  0
 16 17  2  0
  7 18  2  0
 18 19  1  0
 19 20  2  0
 20 21  1  0
 21  3  1  0
 20  6  1  0
 17 12  1  0
M  END
>  <Title>  (991) 
idABMCgen7

$$$$

     RDKit          2D

 35 40  0  0  0  0  0  0  0  0999 V2000
  -10.1624    4.2767    0.0000 C   0  0  0  0  0  0  0  0  0  0  0  0
   -8.9488    3.3950    0.0000 C   0  0  0  0  0  0  0  0  0  0  0  0
   -7.5785    4.0051    0.0000 C   0  0  0  0  0  0  0  0  0  0  0  0
   -6.3650    3.1235    0.0000 C   0  0  0  0  0  0  0  0  0  0  0  0
   -6.5218    1.6317    0.0000 C   0  0  0  0  0  0  0  0  0  0  0  0
   -5.3083    0.7500    0.0000 C   0  0  0  0  0  0  0  0  0  0  0  0
   -5.3083   -0.7500    0.0000 C   0  0  0  0  0  0  0  0  0  0  0  0
   -3.8817   -1.2135    0.0000 C   0  0  0  0  0  0  0  0  0  0  0  0
   -3.0000    0.0000    0.0000 N   0  0  0  0  0  0  0  0  0  0  0  0
   -3.8817    1.2135    0.0000 N   0  0  0  0  0  0  0  0  0  0  0  0
   -3.4182    2.6401    0.0000 C   0  0  0  0  0  0  0  0  0  0  0  0
   -4.2998    3.8536    0.0000 N   0  0  0  0  0  0  0  0  0  0  0  0
   -3.4182    5.0672    0.0000 N   0  0  0  0  0  0  0  0  0  0  0  0
   -1.9916    4.6036    0.0000 N   0  0  0  0  0  0  0  0  0  0  0  0
   -1.9916    3.1036    0.0000 N   0  0  0  0  0  0  0  0  0  0  0  0
   -0.7780    2.2220    0.0000 C   0  0  0  0  0  0  0  0  0  0  0  0
    0.5923    2.8321    0.0000 C   0  0  0  0  0  0  0  0  0  0  0  0
    1.8058    1.9504    0.0000 C   0  0  0  0  0  0  0  0  0  0  0  0
    1.6490    0.4586    0.0000 C   0  0  0  0  0  0  0  0  0  0  0  0
    2.8625   -0.4231    0.0000 C   0  0  0  0  0  0  0  0  0  0  0  0
    2.8625   -1.9231    0.0000 N   0  0  0  0  0  0  0  0  0  0  0  0
    4.2891   -2.3866    0.0000 N   0  0  0  0  0  0  0  0  0  0  0  0
    5.1708   -1.1731    0.0000 N   0  0  0  0  0  0  0  0  0  0  0  0
    4.2891    0.0404    0.0000 N   0  0  0  0  0  0  0  0  0  0  0  0
    4.7526    1.4670    0.0000 C   0  0  0  0  0  0  0  0  0  0  0  0
    3.7489    2.5818    0.0000 C   0  0  0  0  0  0  0  0  0  0  0  0
    4.2125    4.0083    0.0000 C   0  0  0  0  0  0  0  0  0  0  0  0
    5.6797    4.3202    0.0000 C   0  0  0  0  0  0  0  0  0  0  0  0
    6.6834    3.2055    0.0000 C   0  0  0  0  0  0  0  0  0  0  0  0
    6.2199    1.7789    0.0000 C   0  0  0  0  0  0  0  0  0  0  0  0
    0.2787   -0.1515    0.0000 C   0  0  0  0  0  0  0  0  0  0  0  0
   -0.9348    0.7302    0.0000 C   0  0  0  0  0  0  0  0  0  0  0  0
   -7.8921    1.0216    0.0000 C   0  0  0  0  0  0  0  0  0  0  0  0
   -8.0489   -0.4702    0.0000 O   0  0  0  0  0  0  0  0  0  0  0  0
   -9.1056    1.9033    0.0000 N   0  0  0  0  0  0  0  0  0  0  0  0
  1  2  1  0
  2  3  2  0
  3  4  1  0
  4  5  2  0
  5  6  1  0
  6  7  2  0
  7  8  1  0
  8  9  2  0
  9 10  1  0
 10 11  1  0
 11 12  2  0
 12 13  1  0
 13 14  2  0
 14 15  1  0
 15 16  1  0
 16 17  2  0
 17 18  1  0
 18 19  2  0
 19 20  1  0
 20 21  2  0
 21 22  1  0
 22 23  2  0
 23 24  1  0
 24 25  1  0
 25 26  2  0
 26 27  1  0
 27 28  2  0
 28 29  1  0
 29 30  2  0
 19 31  1  0
 31 32  2  0
  5 33  1  0
 33 34  2  0
 33 35  1  0
 35  2  1  0
 10  6  1  0
 15 11  1  0
 32 16  1  0
 24 20  1  0
 30 25  1  0
M  END
>  <Title>  (992) 
idABMDgen7

$$$$

     RDKit          2D

 45 51  0  0  0  0  0  0  0  0999 V2000
   -8.2500   -6.4952    0.0000 C   0  0  0  0  0  0  0  0  0  0  0  0
   -7.5000   -5.1962    0.0000 C   0  0  0  0  0  0  0  0  0  0  0  0
   -6.0000   -5.1962    0.0000 C   0  0  0  0  0  0  0  0  0  0  0  0
   -5.2500   -3.8971    0.0000 C   0  0  0  0  0  0  0  0  0  0  0  0
   -6.0000   -2.5981    0.0000 C   0  0  0  0  0  0  0  0  0  0  0  0
   -5.2500   -1.2990    0.0000 N   0  0  0  0  0  0  0  0  0  0  0  0
   -6.0000    0.0000    0.0000 N   0  0  0  0  0  0  0  0  0  0  0  0
   -5.2500    1.2990    0.0000 N   0  0  0  0  0  0  0  0  0  0  0  0
   -3.7500    1.2990    0.0000 N   0  0  0  0  0  0  0  0  0  0  0  0
   -3.0000    0.0000    0.0000 N   0  0  0  0  0  0  0  0  0  0  0  0
   -3.7500   -1.2990    0.0000 N   0  0  0  0  0  0  0  0  0  0  0  0
   -3.0000   -2.5981    0.0000 C   0  0  0  0  0  0  0  0  0  0  0  0
   -3.7500   -3.8971    0.0000 C   0  0  0  0  0  0  0  0  0  0  0  0
   -3.0000   -5.1962    0.0000 C   0  0  0  0  0  0  0  0  0  0  0  0
   -1.5000   -5.1962    0.0000 C   0  0  0  0  0  0  0  0  0  0  0  0
   -0.7500   -6.4952    0.0000 C   0  0  0  0  0  0  0  0  0  0  0  0
   -1.5000   -7.7942    0.0000 C   0  0  0  0  0  0  0  0  0  0  0  0
   -0.7500   -9.0933    0.0000 C   0  0  0  0  0  0  0  0  0  0  0  0
    0.7500   -9.0933    0.0000 C   0  0  0  0  0  0  0  0  0  0  0  0
    1.5000   -7.7942    0.0000 C   0  0  0  0  0  0  0  0  0  0  0  0
    0.7500   -6.4952    0.0000 C   0  0  0  0  0  0  0  0  0  0  0  0
   -0.7500   -3.8971    0.0000 C   0  0  0  0  0  0  0  0  0  0  0  0
   -1.5000   -2.5981    0.0000 C   0  0  0  0  0  0  0  0  0  0  0  0
   -0.7500   -1.2990    0.0000 C   0  0  0  0  0  0  0  0  0  0  0  0
    0.7500   -1.2990    0.0000 C   0  0  0  0  0  0  0  0  0  0  0  0
    1.5000   -0.0000    0.0000 C   0  0  0  0  0  0  0  0  0  0  0  0
    0.7500    1.2990    0.0000 C   0  0  0  0  0  0  0  0  0  0  0  0
    1.5000    2.5981    0.0000 C   0  0  0  0  0  0  0  0  0  0  0  0
    3.0000    2.5981    0.0000 O   0  0  0  0  0  0  0  0  0  0  0  0
    0.7500    3.8971    0.0000 N   0  0  0  0  0  0  0  0  0  0  0  0
    1.5000    5.1962    0.0000 C   0  0  0  0  0  0  0  0  0  0  0  0
    2.9918    5.3529    0.0000 N   0  0  0  0  0  0  0  0  0  0  0  0
    3.3037    6.8202    0.0000 N   0  0  0  0  0  0  0  0  0  0  0  0
    2.0046    7.5702    0.0000 N   0  0  0  0  0  0  0  0  0  0  0  0
    0.8899    6.5665    0.0000 N   0  0  0  0  0  0  0  0  0  0  0  0
   -0.5773    6.8783    0.0000 C   0  0  0  0  0  0  0  0  0  0  0  0
   -1.5810    5.7636    0.0000 C   0  0  0  0  0  0  0  0  0  0  0  0
   -3.0482    6.0755    0.0000 C   0  0  0  0  0  0  0  0  0  0  0  0
   -3.5118    7.5021    0.0000 C   0  0  0  0  0  0  0  0  0  0  0  0
   -2.5081    8.6168    0.0000 C   0  0  0  0  0  0  0  0  0  0  0  0
   -1.0409    8.3049    0.0000 C   0  0  0  0  0  0  0  0  0  0  0  0
   -0.7500    1.2990    0.0000 C   0  0  0  0  0  0  0  0  0  0  0  0
   -1.5000   -0.0000    0.0000 C   0  0  0  0  0  0  0  0  0  0  0  0
   -7.5000   -2.5981    0.0000 C   0  0  0  0  0  0  0  0  0  0  0  0
   -8.2500   -3.8971    0.0000 N   0  0  0  0  0  0  0  0  0  0  0  0
  1  2  1  0
  2  3  2  0
  3  4  1  0
  4  5  2  0
  5  6  1  0
  6  7  1  0
  7  8  2  0
  8  9  1  0
  9 10  2  0
 10 11  1  0
 11 12  1  0
 12 13  2  0
 13 14  1  0
 14 15  2  0
 15 16  1  0
 16 17  2  0
 17 18  1  0
 18 19  2  0
 19 20  1  0
 20 21  2  0
 15 22  1  0
 22 23  2  0
 23 24  1  0
 24 25  2  0
 25 26  1  0
 26 27  2  0
 27 28  1  0
 28 29  2  0
 28 30  1  0
 30 31  1  0
 31 32  2  0
 32 33  1  0
 33 34  2  0
 34 35  1  0
 35 36  1  0
 36 37  2  0
 37 38  1  0
 38 39  2  0
 39 40  1  0
 40 41  2  0
 27 42  1  0
 42 43  1  0
  5 44  1  0
 44 45  1  0
 45  2  1  0
 11  6  1  0
 23 12  1  0
 43 24  1  0
 21 16  1  0
 35 31  1  0
 41 36  1  0
M  END
>  <Title>  (993) 
idABMEgen7

$$$$

     RDKit          2D

 18 18  0  0  0  0  0  0  0  0999 V2000
    4.1621   -5.1962    0.0000 C   0  0  0  0  0  0  0  0  0  0  0  0
    4.9121   -3.8971    0.0000 C   0  0  0  0  0  0  0  0  0  0  0  0
    6.4121   -3.8971    0.0000 C   0  0  0  0  0  0  0  0  0  0  0  0
    4.1621   -2.5981    0.0000 C   0  0  0  0  0  0  0  0  0  0  0  0
    4.9121   -1.2990    0.0000 C   0  0  0  0  0  0  0  0  0  0  0  0
    6.4121   -1.2990    0.0000 C   0  0  0  0  0  0  0  0  0  0  0  0
    4.1621    0.0000    0.0000 C   0  0  0  0  0  0  0  0  0  0  0  0
    2.6621    0.0000    0.0000 C   0  0  0  0  0  0  0  0  0  0  0  0
    2.2395    1.4392    0.0000 C   0  0  0  0  0  0  0  0  0  0  0  0
    1.1059    2.4215    0.0000 C   0  0  0  0  0  0  0  0  0  0  0  0
   -0.3789    2.6350    0.0000 C   0  0  0  0  0  0  0  0  0  0  0  0
   -1.7433    2.0119    0.0000 C   0  0  0  0  0  0  0  0  0  0  0  0
   -2.5543    0.7500    0.0000 C   0  0  0  0  0  0  0  0  0  0  0  0
   -2.5543   -0.7500    0.0000 C   0  0  0  0  0  0  0  0  0  0  0  0
   -1.7433   -2.0119    0.0000 C   0  0  0  0  0  0  0  0  0  0  0  0
   -0.3789   -2.6350    0.0000 C   0  0  0  0  0  0  0  0  0  0  0  0
    1.1059   -2.4215    0.0000 C   0  0  0  0  0  0  0  0  0  0  0  0
    2.2395   -1.4392    0.0000 C   0  0  0  0  0  0  0  0  0  0  0  0
  1  2  1  0
  2  3  1  0
  2  4  1  0
  4  5  1  0
  5  6  1  0
  5  7  1  0
  7  8  1  0
  8  9  2  0
  9 10  1  0
 10 11  2  0
 11 12  1  0
 12 13  2  0
 13 14  1  0
 14 15  2  0
 15 16  1  0
 16 17  2  0
 17 18  1  0
 18  8  1  0
M  END
>  <Title>  (994) 
idABMFgen7

$$$$

     RDKit          2D

 23 25  0  0  0  0  0  0  0  0999 V2000
    3.0000    0.0000    0.0000 C   0  0  0  0  0  0  0  0  0  0  0  0
    1.5000    0.0000    0.0000 C   0  0  0  0  0  0  0  0  0  0  0  0
    0.7500   -1.2990    0.0000 C   0  0  0  0  0  0  0  0  0  0  0  0
   -0.7500   -1.2990    0.0000 C   0  0  0  0  0  0  0  0  0  0  0  0
   -1.5000    0.0000    0.0000 C   0  0  0  0  0  0  0  0  0  0  0  0
   -3.0000    0.0000    0.0000 C   0  0  0  0  0  0  0  0  0  0  0  0
   -3.7500   -1.2990    0.0000 O   0  0  0  0  0  0  0  0  0  0  0  0
   -3.7500    1.2990    0.0000 N   0  0  0  0  0  0  0  0  0  0  0  0
   -5.2500    1.2990    0.0000 C   0  0  0  0  0  0  0  0  0  0  0  0
   -6.1317    0.0855    0.0000 N   0  0  0  0  0  0  0  0  0  0  0  0
   -7.5583    0.5490    0.0000 N   0  0  0  0  0  0  0  0  0  0  0  0
   -7.5583    2.0490    0.0000 N   0  0  0  0  0  0  0  0  0  0  0  0
   -6.1317    2.5126    0.0000 N   0  0  0  0  0  0  0  0  0  0  0  0
   -5.6682    3.9391    0.0000 C   0  0  0  0  0  0  0  0  0  0  0  0
   -4.2009    4.2510    0.0000 C   0  0  0  0  0  0  0  0  0  0  0  0
   -3.7374    5.6776    0.0000 C   0  0  0  0  0  0  0  0  0  0  0  0
   -4.7411    6.7923    0.0000 C   0  0  0  0  0  0  0  0  0  0  0  0
   -4.2776    8.2189    0.0000 C   0  0  0  0  0  0  0  0  0  0  0  0
   -6.2083    6.4805    0.0000 C   0  0  0  0  0  0  0  0  0  0  0  0
   -7.2120    7.5952    0.0000 O   0  0  0  0  0  0  0  0  0  0  0  0
   -6.6718    5.0539    0.0000 N   0  0  0  0  0  0  0  0  0  0  0  0
   -0.7500    1.2990    0.0000 N   0  0  0  0  0  0  0  0  0  0  0  0
    0.7500    1.2990    0.0000 C   0  0  0  0  0  0  0  0  0  0  0  0
  1  2  1  0
  2  3  2  0
  3  4  1  0
  4  5  2  0
  5  6  1  0
  6  7  2  0
  6  8  1  0
  8  9  1  0
  9 10  2  0
 10 11  1  0
 11 12  2  0
 12 13  1  0
 13 14  1  0
 14 15  2  0
 15 16  1  0
 16 17  2  0
 17 18  1  0
 17 19  1  0
 19 20  2  0
 19 21  1  0
  5 22  1  0
 22 23  1  0
 23  2  1  0
 13  9  1  0
 21 14  1  0
M  END
>  <Title>  (995) 
idABMGgen7

$$$$

     RDKit          2D

 15 17  0  0  0  0  0  0  0  0999 V2000
   -3.1476   -2.1380    0.0000 O   0  0  0  0  0  0  0  0  0  0  0  0
   -1.6852   -2.4718    0.0000 C   0  0  0  0  0  0  0  0  0  0  0  0
   -1.3515   -3.9342    0.0000 C   0  0  0  0  0  0  0  0  0  0  0  0
   -0.0000   -4.5850    0.0000 C   0  0  0  0  0  0  0  0  0  0  0  0
    1.3515   -3.9342    0.0000 C   0  0  0  0  0  0  0  0  0  0  0  0
    2.6391   -4.7035    0.0000 C   0  0  0  0  0  0  0  0  0  0  0  0
    3.7687   -3.7166    0.0000 C   0  0  0  0  0  0  0  0  0  0  0  0
    3.1792   -2.3373    0.0000 C   0  0  0  0  0  0  0  0  0  0  0  0
    1.6852   -2.4718    0.0000 C   0  0  0  0  0  0  0  0  0  0  0  0
    0.7500   -1.2990    0.0000 C   0  0  0  0  0  0  0  0  0  0  0  0
    1.5000    0.0000    0.0000 C   0  0  0  0  0  0  0  0  0  0  0  0
    0.7500    1.2990    0.0000 C   0  0  0  0  0  0  0  0  0  0  0  0
   -0.7500    1.2990    0.0000 C   0  0  0  0  0  0  0  0  0  0  0  0
   -1.5000    0.0000    0.0000 C   0  0  0  0  0  0  0  0  0  0  0  0
   -0.7500   -1.2990    0.0000 C   0  0  0  0  0  0  0  0  0  0  0  0
  1  2  1  0
  2  3  2  0
  3  4  1  0
  4  5  2  0
  5  6  1  0
  6  7  2  0
  7  8  1  0
  8  9  2  0
  9 10  1  0
 10 11  2  0
 11 12  1  0
 12 13  2  0
 13 14  1  0
 14 15  2  0
 15  2  1  0
  9  5  1  0
 15 10  1  0
M  END
>  <Title>  (996) 
idABMHgen7

$$$$

     RDKit          2D

 10 11  0  0  0  0  0  0  0  0999 V2000
   -2.9499    4.2246    0.0000 O   0  0  0  0  0  0  0  0  0  0  0  0
   -1.8351    3.2209    0.0000 C   0  0  0  0  0  0  0  0  0  0  0  0
   -0.4086    3.6844    0.0000 C   0  0  0  0  0  0  0  0  0  0  0  0
    0.7062    2.6807    0.0000 C   0  0  0  0  0  0  0  0  0  0  0  0
    0.3943    1.2135    0.0000 C   0  0  0  0  0  0  0  0  0  0  0  0
    1.2760    0.0000    0.0000 C   0  0  0  0  0  0  0  0  0  0  0  0
    0.3943   -1.2135    0.0000 C   0  0  0  0  0  0  0  0  0  0  0  0
   -1.0323   -0.7500    0.0000 C   0  0  0  0  0  0  0  0  0  0  0  0
   -1.0323    0.7500    0.0000 C   0  0  0  0  0  0  0  0  0  0  0  0
   -2.1470    1.7537    0.0000 N   0  0  0  0  0  0  0  0  0  0  0  0
  1  2  1  0
  2  3  2  0
  3  4  1  0
  4  5  2  0
  5  6  1  0
  6  7  2  0
  7  8  1  0
  8  9  2  0
  9 10  1  0
 10  2  1  0
  9  5  1  0
M  END
>  <Title>  (997) 
idABMIgen7

$$$$

     RDKit          2D

 16 16  0  0  0  0  0  0  0  0999 V2000
    6.6478   -1.2990    0.0000 C   0  0  0  0  0  0  0  0  0  0  0  0
    5.1478   -1.2990    0.0000 C   0  0  0  0  0  0  0  0  0  0  0  0
    4.3978   -2.5981    0.0000 O   0  0  0  0  0  0  0  0  0  0  0  0
    4.3978    0.0000    0.0000 O   0  0  0  0  0  0  0  0  0  0  0  0
    2.8978    0.0000    0.0000 C   0  0  0  0  0  0  0  0  0  0  0  0
    2.5095   -1.4489    0.0000 C   0  0  0  0  0  0  0  0  0  0  0  0
    1.4489   -2.5095    0.0000 C   0  0  0  0  0  0  0  0  0  0  0  0
   -0.0000   -2.8978    0.0000 C   0  0  0  0  0  0  0  0  0  0  0  0
   -1.4489   -2.5095    0.0000 C   0  0  0  0  0  0  0  0  0  0  0  0
   -2.5095   -1.4489    0.0000 C   0  0  0  0  0  0  0  0  0  0  0  0
   -2.8978    0.0000    0.0000 C   0  0  0  0  0  0  0  0  0  0  0  0
   -2.5095    1.4489    0.0000 C   0  0  0  0  0  0  0  0  0  0  0  0
   -1.4489    2.5095    0.0000 C   0  0  0  0  0  0  0  0  0  0  0  0
    0.0000    2.8978    0.0000 C   0  0  0  0  0  0  0  0  0  0  0  0
    1.4489    2.5095    0.0000 C   0  0  0  0  0  0  0  0  0  0  0  0
    2.5095    1.4489    0.0000 C   0  0  0  0  0  0  0  0  0  0  0  0
  1  2  1  0
  2  3  2  0
  2  4  1  0
  4  5  1  0
  5  6  2  0
  6  7  1  0
  7  8  2  0
  8  9  1  0
  9 10  2  0
 10 11  1  0
 11 12  2  0
 12 13  1  0
 13 14  2  0
 14 15  1  0
 15 16  2  0
 16  5  1  0
M  END
>  <Title>  (998) 
idABMJgen7

$$$$

     RDKit          2D

 13 14  0  0  0  0  0  0  0  0999 V2000
   -3.9205   -4.3214    0.0000 C   0  0  0  0  0  0  0  0  0  0  0  0
   -2.5242   -4.8694    0.0000 C   0  0  0  0  0  0  0  0  0  0  0  0
   -1.3515   -3.9342    0.0000 N   0  0  0  0  0  0  0  0  0  0  0  0
   -0.0000   -4.5850    0.0000 C   0  0  0  0  0  0  0  0  0  0  0  0
    1.3515   -3.9342    0.0000 C   0  0  0  0  0  0  0  0  0  0  0  0
    1.6852   -2.4718    0.0000 C   0  0  0  0  0  0  0  0  0  0  0  0
    0.7500   -1.2990    0.0000 C   0  0  0  0  0  0  0  0  0  0  0  0
    1.5000    0.0000    0.0000 C   0  0  0  0  0  0  0  0  0  0  0  0
    0.7500    1.2990    0.0000 C   0  0  0  0  0  0  0  0  0  0  0  0
   -0.7500    1.2990    0.0000 C   0  0  0  0  0  0  0  0  0  0  0  0
   -1.5000    0.0000    0.0000 C   0  0  0  0  0  0  0  0  0  0  0  0
   -0.7500   -1.2990    0.0000 C   0  0  0  0  0  0  0  0  0  0  0  0
   -1.6852   -2.4718    0.0000 C   0  0  0  0  0  0  0  0  0  0  0  0
  1  2  1  0
  2  3  1  0
  3  4  1  0
  4  5  1  0
  5  6  1  0
  6  7  1  0
  7  8  1  0
  8  9  1  0
  9 10  1  0
 10 11  1  0
 11 12  1  0
 12 13  1  0
 13  3  1  0
 12  7  1  0
M  END
>  <Title>  (999) 
idABMKgen7

$$$$

     RDKit          2D

 61 70  0  0  0  0  0  0  0  0999 V2000
    3.0000    0.0000    0.0000 C   0  0  0  0  0  0  0  0  0  0  0  0
    1.5000    0.0000    0.0000 C   0  0  0  0  0  0  0  0  0  0  0  0
    0.7500    1.2990    0.0000 C   0  0  0  0  0  0  0  0  0  0  0  0
   -0.7500    1.2990    0.0000 C   0  0  0  0  0  0  0  0  0  0  0  0
   -1.5000    0.0000    0.0000 C   0  0  0  0  0  0  0  0  0  0  0  0
   -3.0000    0.0000    0.0000 C   0  0  0  0  0  0  0  0  0  0  0  0
   -3.8817   -1.2135    0.0000 N   0  0  0  0  0  0  0  0  0  0  0  0
   -5.3083   -0.7500    0.0000 N   0  0  0  0  0  0  0  0  0  0  0  0
   -5.3083    0.7500    0.0000 N   0  0  0  0  0  0  0  0  0  0  0  0
   -3.8817    1.2135    0.0000 N   0  0  0  0  0  0  0  0  0  0  0  0
   -3.4182    2.6401    0.0000 C   0  0  0  0  0  0  0  0  0  0  0  0
   -1.9509    2.9520    0.0000 C   0  0  0  0  0  0  0  0  0  0  0  0
   -1.4874    4.3786    0.0000 C   0  0  0  0  0  0  0  0  0  0  0  0
   -2.4911    5.4933    0.0000 C   0  0  0  0  0  0  0  0  0  0  0  0
   -2.0276    6.9199    0.0000 C   0  0  0  0  0  0  0  0  0  0  0  0
   -0.5604    7.2317    0.0000 C   0  0  0  0  0  0  0  0  0  0  0  0
   -0.0968    8.6583    0.0000 C   0  0  0  0  0  0  0  0  0  0  0  0
   -1.1005    9.7730    0.0000 C   0  0  0  0  0  0  0  0  0  0  0  0
   -2.5677    9.4612    0.0000 C   0  0  0  0  0  0  0  0  0  0  0  0
   -3.0313    8.0346    0.0000 C   0  0  0  0  0  0  0  0  0  0  0  0
   -4.4985    7.7227    0.0000 C   0  0  0  0  0  0  0  0  0  0  0  0
   -4.9620    6.2961    0.0000 C   0  0  0  0  0  0  0  0  0  0  0  0
   -6.4292    5.9843    0.0000 C   0  0  0  0  0  0  0  0  0  0  0  0
   -7.4329    7.0990    0.0000 C   0  0  0  0  0  0  0  0  0  0  0  0
   -6.9694    8.5256    0.0000 C   0  0  0  0  0  0  0  0  0  0  0  0
   -5.5022    8.8374    0.0000 C   0  0  0  0  0  0  0  0  0  0  0  0
   -5.0387   10.2640    0.0000 N   0  0  0  0  0  0  0  0  0  0  0  0
   -3.7022   10.9450    0.0000 N   0  0  0  0  0  0  0  0  0  0  0  0
   -4.3831   12.2815    0.0000 N   0  0  0  0  0  0  0  0  0  0  0  0
   -5.7196   11.6005    0.0000 N   0  0  0  0  0  0  0  0  0  0  0  0
   -7.1462   12.0641    0.0000 N   0  0  0  0  0  0  0  0  0  0  0  0
   -8.3598   11.1824    0.0000 C   0  0  0  0  0  0  0  0  0  0  0  0
   -9.5733   12.0641    0.0000 C   0  0  0  0  0  0  0  0  0  0  0  0
   -9.1098   13.4906    0.0000 C   0  0  0  0  0  0  0  0  0  0  0  0
   -7.6098   13.4906    0.0000 C   0  0  0  0  0  0  0  0  0  0  0  0
   -3.9583    5.1814    0.0000 C   0  0  0  0  0  0  0  0  0  0  0  0
   -4.4218    3.7548    0.0000 C   0  0  0  0  0  0  0  0  0  0  0  0
   -5.8891    3.4430    0.0000 C   0  0  0  0  0  0  0  0  0  0  0  0
   -6.8928    4.5577    0.0000 C   0  0  0  0  0  0  0  0  0  0  0  0
   -8.3600    4.2458    0.0000 C   0  0  0  0  0  0  0  0  0  0  0  0
   -8.8235    2.8192    0.0000 C   0  0  0  0  0  0  0  0  0  0  0  0
  -10.2907    2.5074    0.0000 C   0  0  0  0  0  0  0  0  0  0  0  0
  -10.7543    1.0808    0.0000 O   0  0  0  0  0  0  0  0  0  0  0  0
  -11.2944    3.6221    0.0000 N   0  0  0  0  0  0  0  0  0  0  0  0
  -12.7617    3.3102    0.0000 C   0  0  0  0  0  0  0  0  0  0  0  0
  -13.7653    4.4249    0.0000 C   0  0  0  0  0  0  0  0  0  0  0  0
  -15.2326    4.1131    0.0000 C   0  0  0  0  0  0  0  0  0  0  0  0
  -15.6961    2.6865    0.0000 C   0  0  0  0  0  0  0  0  0  0  0  0
  -17.1633    2.3746    0.0000 C   0  0  0  0  0  0  0  0  0  0  0  0
  -18.1670    3.4893    0.0000 C   0  0  0  0  0  0  0  0  0  0  0  0
  -19.6342    3.1775    0.0000 C   0  0  0  0  0  0  0  0  0  0  0  0
  -20.0978    1.7509    0.0000 C   0  0  0  0  0  0  0  0  0  0  0  0
  -19.0941    0.6362    0.0000 C   0  0  0  0  0  0  0  0  0  0  0  0
  -17.6268    0.9480    0.0000 C   0  0  0  0  0  0  0  0  0  0  0  0
  -14.6924    1.5718    0.0000 C   0  0  0  0  0  0  0  0  0  0  0  0
  -13.2252    1.8836    0.0000 C   0  0  0  0  0  0  0  0  0  0  0  0
   -7.8198    1.7045    0.0000 C   0  0  0  0  0  0  0  0  0  0  0  0
   -6.3526    2.0164    0.0000 C   0  0  0  0  0  0  0  0  0  0  0  0
   -0.7500   -1.2990    0.0000 C   0  0  0  0  0  0  0  0  0  0  0  0
   -1.5000   -2.5981    0.0000 O   0  0  0  0  0  0  0  0  0  0  0  0
    0.7500   -1.2990    0.0000 N   0  0  0  0  0  0  0  0  0  0  0  0
  1  2  1  0
  2  3  2  0
  3  4  1  0
  4  5  2  0
  5  6  1  0
  6  7  2  0
  7  8  1  0
  8  9  2  0
  9 10  1  0
 10 11  1  0
 11 12  2  0
 12 13  1  0
 13 14  2  0
 14 15  1  0
 15 16  2  0
 16 17  1  0
 17 18  2  0
 18 19  1  0
 19 20  2  0
 20 21  1  0
 21 22  2  0
 22 23  1  0
 23 24  2  0
 24 25  1  0
 25 26  2  0
 26 27  1  0
 27 28  1  0
 28 29  2  0
 29 30  1  0
 30 31  1  0
 31 32  1  0
 32 33  2  0
 33 34  1  0
 34 35  2  0
 14 36  1  0
 36 37  2  0
 37 38  1  0
 38 39  2  0
 39 40  1  0
 40 41  2  0
 41 42  1  0
 42 43  2  0
 42 44  1  0
 44 45  1  0
 45 46  2  0
 46 47  1  0
 47 48  2  0
 48 49  1  0
 49 50  2  0
 50 51  1  0
 51 52  2  0
 52 53  1  0
 53 54  2  0
 48 55  1  0
 55 56  1  0
 41 57  1  0
 57 58  2  0
  5 59  1  0
 59 60  2  0
 59 61  1  0
 61  2  1  0
 10  6  1  0
 37 11  1  0
 58 38  1  0
 20 15  1  0
 26 21  1  0
 30 27  1  0
 35 31  1  0
 56 45  1  0
 54 49  1  0
M  END
>  <Title>  (1000) 
idABMLgen7

$$$$

     RDKit          2D

 42 48  0  0  0  0  0  0  0  0999 V2000
    3.7500   -1.2990    0.0000 C   0  0  0  0  0  0  0  0  0  0  0  0
    3.0000    0.0000    0.0000 O   0  0  0  0  0  0  0  0  0  0  0  0
    1.5000    0.0000    0.0000 C   0  0  0  0  0  0  0  0  0  0  0  0
    0.7500   -1.2990    0.0000 C   0  0  0  0  0  0  0  0  0  0  0  0
   -0.7500   -1.2990    0.0000 C   0  0  0  0  0  0  0  0  0  0  0  0
   -1.5000    0.0000    0.0000 C   0  0  0  0  0  0  0  0  0  0  0  0
   -3.0000    0.0000    0.0000 C   0  0  0  0  0  0  0  0  0  0  0  0
   -3.8817   -1.2135    0.0000 N   0  0  0  0  0  0  0  0  0  0  0  0
   -5.3083   -0.7500    0.0000 N   0  0  0  0  0  0  0  0  0  0  0  0
   -5.3083    0.7500    0.0000 N   0  0  0  0  0  0  0  0  0  0  0  0
   -3.8817    1.2135    0.0000 N   0  0  0  0  0  0  0  0  0  0  0  0
   -3.4182    2.6401    0.0000 C   0  0  0  0  0  0  0  0  0  0  0  0
   -1.9509    2.9520    0.0000 C   0  0  0  0  0  0  0  0  0  0  0  0
   -1.4874    4.3786    0.0000 C   0  0  0  0  0  0  0  0  0  0  0  0
   -2.4911    5.4933    0.0000 C   0  0  0  0  0  0  0  0  0  0  0  0
   -2.0276    6.9199    0.0000 C   0  0  0  0  0  0  0  0  0  0  0  0
   -0.5604    7.2317    0.0000 C   0  0  0  0  0  0  0  0  0  0  0  0
   -0.0968    8.6583    0.0000 C   0  0  0  0  0  0  0  0  0  0  0  0
   -1.1005    9.7730    0.0000 C   0  0  0  0  0  0  0  0  0  0  0  0
   -2.5677    9.4612    0.0000 C   0  0  0  0  0  0  0  0  0  0  0  0
   -3.0313    8.0346    0.0000 C   0  0  0  0  0  0  0  0  0  0  0  0
   -3.9583    5.1814    0.0000 C   0  0  0  0  0  0  0  0  0  0  0  0
   -4.4218    3.7548    0.0000 C   0  0  0  0  0  0  0  0  0  0  0  0
   -5.8891    3.4430    0.0000 C   0  0  0  0  0  0  0  0  0  0  0  0
   -6.8928    4.5577    0.0000 C   0  0  0  0  0  0  0  0  0  0  0  0
   -8.3600    4.2458    0.0000 C   0  0  0  0  0  0  0  0  0  0  0  0
   -8.8235    2.8192    0.0000 C   0  0  0  0  0  0  0  0  0  0  0  0
  -10.2907    2.5074    0.0000 C   0  0  0  0  0  0  0  0  0  0  0  0
  -10.9008    1.1370    0.0000 C   0  0  0  0  0  0  0  0  0  0  0  0
  -12.3926    1.2938    0.0000 N   0  0  0  0  0  0  0  0  0  0  0  0
  -12.7045    2.7611    0.0000 N   0  0  0  0  0  0  0  0  0  0  0  0
  -11.4055    3.5111    0.0000 N   0  0  0  0  0  0  0  0  0  0  0  0
  -11.2487    5.0028    0.0000 C   0  0  0  0  0  0  0  0  0  0  0  0
   -9.8783    5.6129    0.0000 C   0  0  0  0  0  0  0  0  0  0  0  0
   -9.7215    7.1047    0.0000 C   0  0  0  0  0  0  0  0  0  0  0  0
  -10.9351    7.9864    0.0000 C   0  0  0  0  0  0  0  0  0  0  0  0
  -12.3054    7.3763    0.0000 C   0  0  0  0  0  0  0  0  0  0  0  0
  -12.4622    5.8845    0.0000 C   0  0  0  0  0  0  0  0  0  0  0  0
   -7.8198    1.7045    0.0000 C   0  0  0  0  0  0  0  0  0  0  0  0
   -6.3526    2.0164    0.0000 C   0  0  0  0  0  0  0  0  0  0  0  0
   -0.7500    1.2990    0.0000 C   0  0  0  0  0  0  0  0  0  0  0  0
    0.7500    1.2990    0.0000 C   0  0  0  0  0  0  0  0  0  0  0  0
  1  2  1  0
  2  3  1  0
  3  4  2  0
  4  5  1  0
  5  6  2  0
  6  7  1  0
  7  8  2  0
  8  9  1  0
  9 10  2  0
 10 11  1  0
 11 12  1  0
 12 13  2  0
 13 14  1  0
 14 15  2  0
 15 16  1  0
 16 17  2  0
 17 18  1  0
 18 19  2  0
 19 20  1  0
 20 21  2  0
 15 22  1  0
 22 23  2  0
 23 24  1  0
 24 25  2  0
 25 26  1  0
 26 27  2  0
 27 28  1  0
 28 29  2  0
 29 30  1  0
 30 31  2  0
 31 32  1  0
 32 33  1  0
 33 34  2  0
 34 35  1  0
 35 36  2  0
 36 37  1  0
 37 38  2  0
 27 39  1  0
 39 40  2  0
  6 41  1  0
 41 42  2  0
 42  3  1  0
 11  7  1  0
 23 12  1  0
 40 24  1  0
 21 16  1  0
 32 28  1  0
 38 33  1  0
M  END
>  <Title>  (1001) 
idABMMgen7

$$$$

     RDKit          2D

 23 23  0  0  0  0  0  0  0  0999 V2000
    6.7700    0.0000    0.0000 C   0  0  0  0  0  0  0  0  0  0  0  0
    5.2700    0.0000    0.0000 C   0  0  0  0  0  0  0  0  0  0  0  0
    5.0565   -1.4847    0.0000 C   0  0  0  0  0  0  0  0  0  0  0  0
    4.4334   -2.8492    0.0000 C   0  0  0  0  0  0  0  0  0  0  0  0
    3.4511   -3.9828    0.0000 C   0  0  0  0  0  0  0  0  0  0  0  0
    2.1892   -4.7938    0.0000 C   0  0  0  0  0  0  0  0  0  0  0  0
    0.7500   -5.2164    0.0000 C   0  0  0  0  0  0  0  0  0  0  0  0
   -0.7500   -5.2164    0.0000 C   0  0  0  0  0  0  0  0  0  0  0  0
   -2.1892   -4.7938    0.0000 C   0  0  0  0  0  0  0  0  0  0  0  0
   -3.4511   -3.9828    0.0000 C   0  0  0  0  0  0  0  0  0  0  0  0
   -4.4334   -2.8492    0.0000 C   0  0  0  0  0  0  0  0  0  0  0  0
   -5.0565   -1.4847    0.0000 C   0  0  0  0  0  0  0  0  0  0  0  0
   -5.2700    0.0000    0.0000 C   0  0  0  0  0  0  0  0  0  0  0  0
   -5.0565    1.4847    0.0000 C   0  0  0  0  0  0  0  0  0  0  0  0
   -4.4334    2.8492    0.0000 C   0  0  0  0  0  0  0  0  0  0  0  0
   -3.4511    3.9828    0.0000 C   0  0  0  0  0  0  0  0  0  0  0  0
   -2.1892    4.7938    0.0000 C   0  0  0  0  0  0  0  0  0  0  0  0
   -0.7500    5.2164    0.0000 C   0  0  0  0  0  0  0  0  0  0  0  0
    0.7500    5.2164    0.0000 C   0  0  0  0  0  0  0  0  0  0  0  0
    2.1892    4.7938    0.0000 C   0  0  0  0  0  0  0  0  0  0  0  0
    3.4511    3.9828    0.0000 C   0  0  0  0  0  0  0  0  0  0  0  0
    4.4334    2.8492    0.0000 C   0  0  0  0  0  0  0  0  0  0  0  0
    5.0565    1.4847    0.0000 C   0  0  0  0  0  0  0  0  0  0  0  0
  1  2  1  0
  2  3  2  0
  3  4  1  0
  4  5  2  0
  5  6  1  0
  6  7  2  0
  7  8  1  0
  8  9  2  0
  9 10  1  0
 10 11  2  0
 11 12  1  0
 12 13  2  0
 13 14  1  0
 14 15  2  0
 15 16  1  0
 16 17  2  0
 17 18  1  0
 18 19  2  0
 19 20  1  0
 20 21  2  0
 21 22  1  0
 22 23  2  0
 23  2  1  0
M  END
>  <Title>  (1002) 
idABMNgen7

$$$$

     RDKit          2D

 29 32  0  0  0  0  0  0  0  0999 V2000
   -2.1535   -8.4451    0.0000 C   0  0  0  0  0  0  0  0  0  0  0  0
   -1.4564   -7.1169    0.0000 C   0  0  0  0  0  0  0  0  0  0  0  0
   -0.0000   -7.4758    0.0000 C   0  0  0  0  0  0  0  0  0  0  0  0
    1.4564   -7.1169    0.0000 C   0  0  0  0  0  0  0  0  0  0  0  0
    2.5792   -6.1222    0.0000 C   0  0  0  0  0  0  0  0  0  0  0  0
    3.1111   -4.7197    0.0000 C   0  0  0  0  0  0  0  0  0  0  0  0
    2.9303   -3.2306    0.0000 N   0  0  0  0  0  0  0  0  0  0  0  0
    2.0782   -1.9961    0.0000 C   0  0  0  0  0  0  0  0  0  0  0  0
    3.0729   -0.8734    0.0000 O   0  0  0  0  0  0  0  0  0  0  0  0
    0.7500   -1.2990    0.0000 C   0  0  0  0  0  0  0  0  0  0  0  0
    1.5000    0.0000    0.0000 C   0  0  0  0  0  0  0  0  0  0  0  0
    0.7500    1.2990    0.0000 C   0  0  0  0  0  0  0  0  0  0  0  0
   -0.7500    1.2990    0.0000 C   0  0  0  0  0  0  0  0  0  0  0  0
   -1.5000    0.0000    0.0000 C   0  0  0  0  0  0  0  0  0  0  0  0
   -0.7500   -1.2990    0.0000 C   0  0  0  0  0  0  0  0  0  0  0  0
   -2.0782   -1.9961    0.0000 C   0  0  0  0  0  0  0  0  0  0  0  0
   -2.7212   -0.6409    0.0000 C   0  0  0  0  0  0  0  0  0  0  0  0
   -4.2164   -0.5202    0.0000 C   0  0  0  0  0  0  0  0  0  0  0  0
   -5.0685   -1.7547    0.0000 C   0  0  0  0  0  0  0  0  0  0  0  0
   -6.5636   -1.6340    0.0000 C   0  0  0  0  0  0  0  0  0  0  0  0
   -7.2066   -0.2788    0.0000 C   0  0  0  0  0  0  0  0  0  0  0  0
   -8.7018   -0.1581    0.0000 C   0  0  0  0  0  0  0  0  0  0  0  0
   -9.5539   -1.3926    0.0000 C   0  0  0  0  0  0  0  0  0  0  0  0
   -8.9108   -2.7478    0.0000 C   0  0  0  0  0  0  0  0  0  0  0  0
   -7.4157   -2.8685    0.0000 C   0  0  0  0  0  0  0  0  0  0  0  0
   -4.4254   -3.1099    0.0000 C   0  0  0  0  0  0  0  0  0  0  0  0
   -2.9303   -3.2306    0.0000 C   0  0  0  0  0  0  0  0  0  0  0  0
   -3.1111   -4.7197    0.0000 C   0  0  0  0  0  0  0  0  0  0  0  0
   -2.5792   -6.1222    0.0000 C   0  0  0  0  0  0  0  0  0  0  0  0
  1  2  1  0
  2  3  2  0
  3  4  1  0
  4  5  2  0
  5  6  1  0
  6  7  1  0
  7  8  1  0
  8  9  2  0
  8 10  1  0
 10 11  1  0
 11 12  1  0
 12 13  1  0
 13 14  1  0
 14 15  1  0
 15 16  1  0
 16 17  2  0
 17 18  1  0
 18 19  2  0
 19 20  1  0
 20 21  2  0
 21 22  1  0
 22 23  2  0
 23 24  1  0
 24 25  2  0
 19 26  1  0
 26 27  2  0
 27 28  1  0
 28 29  2  0
 29  2  1  0
 15 10  1  0
 27 16  1  0
 25 20  1  0
M  END
>  <Title>  (1003) 
idABMOgen7

$$$$

     RDKit          2D

 44 50  0  0  0  0  0  0  0  0999 V2000
    3.0000    0.0000    0.0000 C   0  0  0  0  0  0  0  0  0  0  0  0
    1.5000    0.0000    0.0000 C   0  0  0  0  0  0  0  0  0  0  0  0
    0.7500   -1.2990    0.0000 C   0  0  0  0  0  0  0  0  0  0  0  0
   -0.7500   -1.2990    0.0000 C   0  0  0  0  0  0  0  0  0  0  0  0
   -1.5000    0.0000    0.0000 C   0  0  0  0  0  0  0  0  0  0  0  0
   -3.0000    0.0000    0.0000 C   0  0  0  0  0  0  0  0  0  0  0  0
   -3.8817   -1.2135    0.0000 N   0  0  0  0  0  0  0  0  0  0  0  0
   -5.3083   -0.7500    0.0000 N   0  0  0  0  0  0  0  0  0  0  0  0
   -5.3083    0.7500    0.0000 N   0  0  0  0  0  0  0  0  0  0  0  0
   -3.8817    1.2135    0.0000 N   0  0  0  0  0  0  0  0  0  0  0  0
   -3.4182    2.6401    0.0000 C   0  0  0  0  0  0  0  0  0  0  0  0
   -1.9509    2.9520    0.0000 C   0  0  0  0  0  0  0  0  0  0  0  0
   -1.4874    4.3786    0.0000 C   0  0  0  0  0  0  0  0  0  0  0  0
   -2.4911    5.4933    0.0000 C   0  0  0  0  0  0  0  0  0  0  0  0
   -2.0276    6.9199    0.0000 C   0  0  0  0  0  0  0  0  0  0  0  0
   -3.0313    8.0346    0.0000 O   0  0  0  0  0  0  0  0  0  0  0  0
   -0.5604    7.2317    0.0000 N   0  0  0  0  0  0  0  0  0  0  0  0
   -0.0968    8.6583    0.0000 C   0  0  0  0  0  0  0  0  0  0  0  0
   -0.9785    9.8718    0.0000 N   0  0  0  0  0  0  0  0  0  0  0  0
   -0.0968   11.0854    0.0000 N   0  0  0  0  0  0  0  0  0  0  0  0
    1.3298   10.6218    0.0000 N   0  0  0  0  0  0  0  0  0  0  0  0
    1.3298    9.1218    0.0000 N   0  0  0  0  0  0  0  0  0  0  0  0
    2.5433    8.2402    0.0000 C   0  0  0  0  0  0  0  0  0  0  0  0
    2.3865    6.7484    0.0000 C   0  0  0  0  0  0  0  0  0  0  0  0
    3.6000    5.8667    0.0000 C   0  0  0  0  0  0  0  0  0  0  0  0
    4.9703    6.4768    0.0000 C   0  0  0  0  0  0  0  0  0  0  0  0
    5.1271    7.9686    0.0000 C   0  0  0  0  0  0  0  0  0  0  0  0
    3.9136    8.8503    0.0000 C   0  0  0  0  0  0  0  0  0  0  0  0
   -3.9583    5.1814    0.0000 C   0  0  0  0  0  0  0  0  0  0  0  0
   -4.4218    3.7548    0.0000 C   0  0  0  0  0  0  0  0  0  0  0  0
   -5.8891    3.4430    0.0000 C   0  0  0  0  0  0  0  0  0  0  0  0
   -6.8928    4.5577    0.0000 C   0  0  0  0  0  0  0  0  0  0  0  0
   -8.3600    4.2458    0.0000 C   0  0  0  0  0  0  0  0  0  0  0  0
   -8.8235    2.8192    0.0000 C   0  0  0  0  0  0  0  0  0  0  0  0
  -10.2907    2.5074    0.0000 C   0  0  0  0  0  0  0  0  0  0  0  0
  -11.2944    3.6221    0.0000 C   0  0  0  0  0  0  0  0  0  0  0  0
  -12.7617    3.3102    0.0000 C   0  0  0  0  0  0  0  0  0  0  0  0
  -13.2252    1.8836    0.0000 C   0  0  0  0  0  0  0  0  0  0  0  0
  -12.2215    0.7689    0.0000 C   0  0  0  0  0  0  0  0  0  0  0  0
  -10.7543    1.0808    0.0000 C   0  0  0  0  0  0  0  0  0  0  0  0
   -7.8198    1.7045    0.0000 C   0  0  0  0  0  0  0  0  0  0  0  0
   -6.3526    2.0164    0.0000 C   0  0  0  0  0  0  0  0  0  0  0  0
   -0.7500    1.2990    0.0000 C   0  0  0  0  0  0  0  0  0  0  0  0
    0.7500    1.2990    0.0000 C   0  0  0  0  0  0  0  0  0  0  0  0
  1  2  1  0
  2  3  2  0
  3  4  1  0
  4  5  2  0
  5  6  1  0
  6  7  2  0
  7  8  1  0
  8  9  2  0
  9 10  1  0
 10 11  1  0
 11 12  2  0
 12 13  1  0
 13 14  2  0
 14 15  1  0
 15 16  2  0
 15 17  1  0
 17 18  1  0
 18 19  2  0
 19 20  1  0
 20 21  2  0
 21 22  1  0
 22 23  1  0
 23 24  2  0
 24 25  1  0
 25 26  2  0
 26 27  1  0
 27 28  2  0
 14 29  1  0
 29 30  2  0
 30 31  1  0
 31 32  2  0
 32 33  1  0
 33 34  2  0
 34 35  1  0
 35 36  2  0
 36 37  1  0
 37 38  2  0
 38 39  1  0
 39 40  2  0
 34 41  1  0
 41 42  2  0
  5 43  1  0
 43 44  2  0
 44  2  1  0
 10  6  1  0
 30 11  1  0
 42 31  1  0
 22 18  1  0
 28 23  1  0
 40 35  1  0
M  END
>  <Title>  (1004) 
idABMPgen7

$$$$

     RDKit          2D

 37 42  0  0  0  0  0  0  0  0999 V2000
    3.7500   -1.2990    0.0000 C   0  0  0  0  0  0  0  0  0  0  0  0
    3.0000    0.0000    0.0000 O   0  0  0  0  0  0  0  0  0  0  0  0
    1.5000    0.0000    0.0000 C   0  0  0  0  0  0  0  0  0  0  0  0
    0.7500   -1.2990    0.0000 C   0  0  0  0  0  0  0  0  0  0  0  0
   -0.7500   -1.2990    0.0000 C   0  0  0  0  0  0  0  0  0  0  0  0
   -1.5000    0.0000    0.0000 C   0  0  0  0  0  0  0  0  0  0  0  0
   -3.0000    0.0000    0.0000 N   0  0  0  0  0  0  0  0  0  0  0  0
   -3.8817   -1.2135    0.0000 C   0  0  0  0  0  0  0  0  0  0  0  0
   -3.4182   -2.6401    0.0000 O   0  0  0  0  0  0  0  0  0  0  0  0
   -5.3083   -0.7500    0.0000 C   0  0  0  0  0  0  0  0  0  0  0  0
   -6.5218   -1.6317    0.0000 C   0  0  0  0  0  0  0  0  0  0  0  0
   -7.8921   -1.0216    0.0000 C   0  0  0  0  0  0  0  0  0  0  0  0
   -9.1056   -1.9033    0.0000 C   0  0  0  0  0  0  0  0  0  0  0  0
   -8.9488   -3.3950    0.0000 C   0  0  0  0  0  0  0  0  0  0  0  0
   -7.5785   -4.0051    0.0000 C   0  0  0  0  0  0  0  0  0  0  0  0
   -6.3650   -3.1235    0.0000 C   0  0  0  0  0  0  0  0  0  0  0  0
   -5.3083    0.7500    0.0000 C   0  0  0  0  0  0  0  0  0  0  0  0
   -3.8817    1.2135    0.0000 C   0  0  0  0  0  0  0  0  0  0  0  0
   -3.4182    2.6401    0.0000 C   0  0  0  0  0  0  0  0  0  0  0  0
   -1.9509    2.9520    0.0000 C   0  0  0  0  0  0  0  0  0  0  0  0
   -1.4874    4.3786    0.0000 C   0  0  0  0  0  0  0  0  0  0  0  0
   -2.4911    5.4933    0.0000 C   0  0  0  0  0  0  0  0  0  0  0  0
   -2.0276    6.9199    0.0000 C   0  0  0  0  0  0  0  0  0  0  0  0
   -2.9093    8.1334    0.0000 N   0  0  0  0  0  0  0  0  0  0  0  0
   -2.0276    9.3469    0.0000 N   0  0  0  0  0  0  0  0  0  0  0  0
   -0.6010    8.8834    0.0000 N   0  0  0  0  0  0  0  0  0  0  0  0
   -0.6010    7.3834    0.0000 N   0  0  0  0  0  0  0  0  0  0  0  0
    0.6125    6.5017    0.0000 C   0  0  0  0  0  0  0  0  0  0  0  0
    0.4557    5.0099    0.0000 C   0  0  0  0  0  0  0  0  0  0  0  0
    1.6693    4.1283    0.0000 C   0  0  0  0  0  0  0  0  0  0  0  0
    3.0396    4.7384    0.0000 C   0  0  0  0  0  0  0  0  0  0  0  0
    3.1964    6.2301    0.0000 C   0  0  0  0  0  0  0  0  0  0  0  0
    1.9829    7.1118    0.0000 C   0  0  0  0  0  0  0  0  0  0  0  0
   -3.9583    5.1814    0.0000 C   0  0  0  0  0  0  0  0  0  0  0  0
   -4.4218    3.7548    0.0000 C   0  0  0  0  0  0  0  0  0  0  0  0
   -0.7500    1.2990    0.0000 C   0  0  0  0  0  0  0  0  0  0  0  0
    0.7500    1.2990    0.0000 C   0  0  0  0  0  0  0  0  0  0  0  0
  1  2  1  0
  2  3  1  0
  3  4  2  0
  4  5  1  0
  5  6  2  0
  6  7  1  0
  7  8  1  0
  8  9  2  0
  8 10  1  0
 10 11  1  0
 11 12  2  0
 12 13  1  0
 13 14  2  0
 14 15  1  0
 15 16  2  0
 10 17  1  0
 17 18  2  0
 18 19  1  0
 19 20  2  0
 20 21  1  0
 21 22  2  0
 22 23  1  0
 23 24  2  0
 24 25  1  0
 25 26  2  0
 26 27  1  0
 27 28  1  0
 28 29  2  0
 29 30  1  0
 30 31  2  0
 31 32  1  0
 32 33  2  0
 22 34  1  0
 34 35  2  0
  6 36  1  0
 36 37  1  0
 37  3  1  0
 18  7  1  0
 35 19  1  0
 16 11  1  0
 27 23  1  0
 33 28  1  0
M  END
>  <Title>  (1005) 
idABMQgen7

$$$$

     RDKit          2D

 37 42  0  0  0  0  0  0  0  0999 V2000
    3.7500   -1.2990    0.0000 C   0  0  0  0  0  0  0  0  0  0  0  0
    3.0000    0.0000    0.0000 O   0  0  0  0  0  0  0  0  0  0  0  0
    1.5000    0.0000    0.0000 C   0  0  0  0  0  0  0  0  0  0  0  0
    0.7500   -1.2990    0.0000 C   0  0  0  0  0  0  0  0  0  0  0  0
   -0.7500   -1.2990    0.0000 C   0  0  0  0  0  0  0  0  0  0  0  0
   -1.5000    0.0000    0.0000 C   0  0  0  0  0  0  0  0  0  0  0  0
   -3.0000    0.0000    0.0000 C   0  0  0  0  0  0  0  0  0  0  0  0
   -3.8817   -1.2135    0.0000 N   0  0  0  0  0  0  0  0  0  0  0  0
   -5.3083   -0.7500    0.0000 N   0  0  0  0  0  0  0  0  0  0  0  0
   -5.3083    0.7500    0.0000 N   0  0  0  0  0  0  0  0  0  0  0  0
   -3.8817    1.2135    0.0000 N   0  0  0  0  0  0  0  0  0  0  0  0
   -3.4182    2.6401    0.0000 C   0  0  0  0  0  0  0  0  0  0  0  0
   -1.9509    2.9520    0.0000 C   0  0  0  0  0  0  0  0  0  0  0  0
   -1.4874    4.3786    0.0000 C   0  0  0  0  0  0  0  0  0  0  0  0
   -2.4911    5.4933    0.0000 C   0  0  0  0  0  0  0  0  0  0  0  0
   -2.0276    6.9199    0.0000 C   0  0  0  0  0  0  0  0  0  0  0  0
   -0.5604    7.2317    0.0000 C   0  0  0  0  0  0  0  0  0  0  0  0
   -0.0968    8.6583    0.0000 C   0  0  0  0  0  0  0  0  0  0  0  0
   -1.1005    9.7730    0.0000 C   0  0  0  0  0  0  0  0  0  0  0  0
   -2.5677    9.4612    0.0000 C   0  0  0  0  0  0  0  0  0  0  0  0
   -3.0313    8.0346    0.0000 C   0  0  0  0  0  0  0  0  0  0  0  0
   -3.9583    5.1814    0.0000 C   0  0  0  0  0  0  0  0  0  0  0  0
   -4.4218    3.7548    0.0000 C   0  0  0  0  0  0  0  0  0  0  0  0
   -5.8891    3.4430    0.0000 C   0  0  0  0  0  0  0  0  0  0  0  0
   -6.8928    4.5577    0.0000 C   0  0  0  0  0  0  0  0  0  0  0  0
   -8.3600    4.2458    0.0000 C   0  0  0  0  0  0  0  0  0  0  0  0
   -8.8235    2.8192    0.0000 C   0  0  0  0  0  0  0  0  0  0  0  0
  -10.2907    2.5074    0.0000 C   0  0  0  0  0  0  0  0  0  0  0  0
  -11.2944    3.6221    0.0000 C   0  0  0  0  0  0  0  0  0  0  0  0
  -12.7617    3.3102    0.0000 C   0  0  0  0  0  0  0  0  0  0  0  0
  -13.2252    1.8836    0.0000 C   0  0  0  0  0  0  0  0  0  0  0  0
  -12.2215    0.7689    0.0000 C   0  0  0  0  0  0  0  0  0  0  0  0
  -10.7543    1.0808    0.0000 C   0  0  0  0  0  0  0  0  0  0  0  0
   -7.8198    1.7045    0.0000 C   0  0  0  0  0  0  0  0  0  0  0  0
   -6.3526    2.0164    0.0000 C   0  0  0  0  0  0  0  0  0  0  0  0
   -0.7500    1.2990    0.0000 C   0  0  0  0  0  0  0  0  0  0  0  0
    0.7500    1.2990    0.0000 C   0  0  0  0  0  0  0  0  0  0  0  0
  1  2  1  0
  2  3  1  0
  3  4  2  0
  4  5  1  0
  5  6  2  0
  6  7  1  0
  7  8  2  0
  8  9  1  0
  9 10  2  0
 10 11  1  0
 11 12  1  0
 12 13  2  0
 13 14  1  0
 14 15  2  0
 15 16  1  0
 16 17  2  0
 17 18  1  0
 18 19  2  0
 19 20  1  0
 20 21  2  0
 15 22  1  0
 22 23  2  0
 23 24  1  0
 24 25  2  0
 25 26  1  0
 26 27  2  0
 27 28  1  0
 28 29  2  0
 29 30  1  0
 30 31  2  0
 31 32  1  0
 32 33  2  0
 27 34  1  0
 34 35  1  0
  6 36  1  0
 36 37  2  0
 37  3  1  0
 11  7  1  0
 23 12  1  0
 35 24  1  0
 21 16  1  0
 33 28  1  0
M  END
>  <Title>  (1006) 
idABMRgen7

$$$$

     RDKit          2D

 15 16  0  0  0  0  0  0  0  0999 V2000
    3.9786   -1.2990    0.0000 C   0  0  0  0  0  0  0  0  0  0  0  0
    3.2286   -0.0000    0.0000 O   0  0  0  0  0  0  0  0  0  0  0  0
    1.7286    0.0000    0.0000 C   0  0  0  0  0  0  0  0  0  0  0  0
    1.0777    1.3515    0.0000 C   0  0  0  0  0  0  0  0  0  0  0  0
   -0.3846    1.6852    0.0000 C   0  0  0  0  0  0  0  0  0  0  0  0
   -1.5574    0.7500    0.0000 C   0  0  0  0  0  0  0  0  0  0  0  0
   -2.7301    1.6852    0.0000 C   0  0  0  0  0  0  0  0  0  0  0  0
   -4.1925    1.3515    0.0000 C   0  0  0  0  0  0  0  0  0  0  0  0
   -4.8434   -0.0000    0.0000 C   0  0  0  0  0  0  0  0  0  0  0  0
   -4.1925   -1.3515    0.0000 C   0  0  0  0  0  0  0  0  0  0  0  0
   -5.1278   -2.5242    0.0000 F   0  0  0  0  0  0  0  0  0  0  0  0
   -2.7301   -1.6852    0.0000 C   0  0  0  0  0  0  0  0  0  0  0  0
   -1.5574   -0.7500    0.0000 C   0  0  0  0  0  0  0  0  0  0  0  0
   -0.3846   -1.6852    0.0000 C   0  0  0  0  0  0  0  0  0  0  0  0
    1.0777   -1.3515    0.0000 C   0  0  0  0  0  0  0  0  0  0  0  0
  1  2  1  0
  2  3  1  0
  3  4  2  0
  4  5  1  0
  5  6  2  0
  6  7  1  0
  7  8  2  0
  8  9  1  0
  9 10  2  0
 10 11  1  0
 10 12  1  0
 12 13  2  0
 13 14  1  0
 14 15  2  0
 15  3  1  0
 13  6  1  0
M  END
>  <Title>  (1007) 
idABMSgen7

$$$$

     RDKit          2D

 64 73  0  0  0  0  0  0  0  0999 V2000
    0.8311   10.2038    0.0000 C   0  0  0  0  0  0  0  0  0  0  0  0
   -0.5392    9.5937    0.0000 C   0  0  0  0  0  0  0  0  0  0  0  0
   -0.6960    8.1019    0.0000 C   0  0  0  0  0  0  0  0  0  0  0  0
   -2.0663    7.4918    0.0000 C   0  0  0  0  0  0  0  0  0  0  0  0
   -3.2798    8.3735    0.0000 C   0  0  0  0  0  0  0  0  0  0  0  0
   -4.6502    7.7634    0.0000 C   0  0  0  0  0  0  0  0  0  0  0  0
   -5.9492    8.5134    0.0000 N   0  0  0  0  0  0  0  0  0  0  0  0
   -7.0639    7.5097    0.0000 N   0  0  0  0  0  0  0  0  0  0  0  0
   -6.4538    6.1393    0.0000 N   0  0  0  0  0  0  0  0  0  0  0  0
   -4.9620    6.2961    0.0000 N   0  0  0  0  0  0  0  0  0  0  0  0
   -3.9583    5.1814    0.0000 C   0  0  0  0  0  0  0  0  0  0  0  0
   -2.4911    5.4933    0.0000 C   0  0  0  0  0  0  0  0  0  0  0  0
   -1.4874    4.3786    0.0000 C   0  0  0  0  0  0  0  0  0  0  0  0
   -1.9509    2.9520    0.0000 C   0  0  0  0  0  0  0  0  0  0  0  0
   -0.9472    1.8373    0.0000 C   0  0  0  0  0  0  0  0  0  0  0  0
   -1.2591    0.3700    0.0000 N   0  0  0  0  0  0  0  0  0  0  0  0
    0.0399   -0.3800    0.0000 N   0  0  0  0  0  0  0  0  0  0  0  0
    1.1547    0.6237    0.0000 N   0  0  0  0  0  0  0  0  0  0  0  0
    0.5445    1.9941    0.0000 N   0  0  0  0  0  0  0  0  0  0  0  0
    1.2945    3.2931    0.0000 C   0  0  0  0  0  0  0  0  0  0  0  0
    0.5445    4.5921    0.0000 C   0  0  0  0  0  0  0  0  0  0  0  0
    1.2945    5.8912    0.0000 C   0  0  0  0  0  0  0  0  0  0  0  0
    2.7945    5.8912    0.0000 C   0  0  0  0  0  0  0  0  0  0  0  0
    3.5445    4.5921    0.0000 C   0  0  0  0  0  0  0  0  0  0  0  0
    2.7945    3.2931    0.0000 C   0  0  0  0  0  0  0  0  0  0  0  0
   -3.4182    2.6401    0.0000 C   0  0  0  0  0  0  0  0  0  0  0  0
   -4.4218    3.7548    0.0000 C   0  0  0  0  0  0  0  0  0  0  0  0
   -5.8891    3.4430    0.0000 C   0  0  0  0  0  0  0  0  0  0  0  0
   -6.8928    4.5577    0.0000 C   0  0  0  0  0  0  0  0  0  0  0  0
   -8.3600    4.2458    0.0000 C   0  0  0  0  0  0  0  0  0  0  0  0
   -8.8235    2.8192    0.0000 C   0  0  0  0  0  0  0  0  0  0  0  0
  -10.2907    2.5074    0.0000 C   0  0  0  0  0  0  0  0  0  0  0  0
  -11.2944    3.6221    0.0000 C   0  0  0  0  0  0  0  0  0  0  0  0
  -12.7617    3.3102    0.0000 C   0  0  0  0  0  0  0  0  0  0  0  0
  -13.2252    1.8836    0.0000 C   0  0  0  0  0  0  0  0  0  0  0  0
  -14.6924    1.5718    0.0000 C   0  0  0  0  0  0  0  0  0  0  0  0
  -15.6961    2.6865    0.0000 C   0  0  0  0  0  0  0  0  0  0  0  0
  -17.1633    2.3746    0.0000 C   0  0  0  0  0  0  0  0  0  0  0  0
  -17.6268    0.9480    0.0000 C   0  0  0  0  0  0  0  0  0  0  0  0
  -16.6231   -0.1667    0.0000 C   0  0  0  0  0  0  0  0  0  0  0  0
  -15.1559    0.1452    0.0000 C   0  0  0  0  0  0  0  0  0  0  0  0
  -12.2215    0.7689    0.0000 C   0  0  0  0  0  0  0  0  0  0  0  0
  -10.7543    1.0808    0.0000 C   0  0  0  0  0  0  0  0  0  0  0  0
   -7.8198    1.7045    0.0000 C   0  0  0  0  0  0  0  0  0  0  0  0
   -6.3526    2.0164    0.0000 C   0  0  0  0  0  0  0  0  0  0  0  0
   -5.3489    0.9017    0.0000 C   0  0  0  0  0  0  0  0  0  0  0  0
   -5.8124   -0.5249    0.0000 C   0  0  0  0  0  0  0  0  0  0  0  0
   -4.8087   -1.6396    0.0000 C   0  0  0  0  0  0  0  0  0  0  0  0
   -3.3415   -1.3278    0.0000 C   0  0  0  0  0  0  0  0  0  0  0  0
   -2.3378   -2.4425    0.0000 N   0  0  0  0  0  0  0  0  0  0  0  0
   -2.8013   -3.8691    0.0000 C   0  0  0  0  0  0  0  0  0  0  0  0
   -4.2686   -4.1809    0.0000 O   0  0  0  0  0  0  0  0  0  0  0  0
   -1.7976   -4.9838    0.0000 N   0  0  0  0  0  0  0  0  0  0  0  0
   -2.2612   -6.4104    0.0000 C   0  0  0  0  0  0  0  0  0  0  0  0
   -3.7284   -6.7222    0.0000 C   0  0  0  0  0  0  0  0  0  0  0  0
   -4.1919   -8.1488    0.0000 C   0  0  0  0  0  0  0  0  0  0  0  0
   -3.1882   -9.2636    0.0000 C   0  0  0  0  0  0  0  0  0  0  0  0
   -1.7210   -8.9517    0.0000 C   0  0  0  0  0  0  0  0  0  0  0  0
   -1.2575   -7.5251    0.0000 C   0  0  0  0  0  0  0  0  0  0  0  0
   -2.8780    0.0988    0.0000 C   0  0  0  0  0  0  0  0  0  0  0  0
   -3.8817    1.2135    0.0000 C   0  0  0  0  0  0  0  0  0  0  0  0
   -3.1230    9.8652    0.0000 C   0  0  0  0  0  0  0  0  0  0  0  0
   -4.3366   10.7469    0.0000 O   0  0  0  0  0  0  0  0  0  0  0  0
   -1.7527   10.4753    0.0000 N   0  0  0  0  0  0  0  0  0  0  0  0
  1  2  1  0
  2  3  2  0
  3  4  1  0
  4  5  2  0
  5  6  1  0
  6  7  2  0
  7  8  1  0
  8  9  2  0
  9 10  1  0
 10 11  1  0
 11 12  2  0
 12 13  1  0
 13 14  2  0
 14 15  1  0
 15 16  2  0
 16 17  1  0
 17 18  2  0
 18 19  1  0
 19 20  1  0
 20 21  2  0
 21 22  1  0
 22 23  2  0
 23 24  1  0
 24 25  2  0
 14 26  1  0
 26 27  2  0
 27 28  1  0
 28 29  2  0
 29 30  1  0
 30 31  2  0
 31 32  1  0
 32 33  2  0
 33 34  1  0
 34 35  2  0
 35 36  1  0
 36 37  2  0
 37 38  1  0
 38 39  2  0
 39 40  1  0
 40 41  2  0
 35 42  1  0
 42 43  2  0
 31 44  1  0
 44 45  2  0
 45 46  1  0
 46 47  2  0
 47 48  1  0
 48 49  2  0
 49 50  1  0
 50 51  1  0
 51 52  2  0
 51 53  1  0
 53 54  1  0
 54 55  2  0
 55 56  1  0
 56 57  2  0
 57 58  1  0
 58 59  2  0
 49 60  1  0
 60 61  2  0
  5 62  1  0
 62 63  2  0
 62 64  1  0
 64  2  1  0
 10  6  1  0
 27 11  1  0
 45 28  1  0
 61 46  1  0
 19 15  1  0
 25 20  1  0
 43 32  1  0
 59 54  1  0
 41 36  1  0
M  END
>  <Title>  (1008) 
idABMTgen7

$$$$

     RDKit          2D

 32 36  0  0  0  0  0  0  0  0999 V2000
    3.0000    0.0000    0.0000 C   0  0  0  0  0  0  0  0  0  0  0  0
    1.5000    0.0000    0.0000 C   0  0  0  0  0  0  0  0  0  0  0  0
    0.7500   -1.2990    0.0000 C   0  0  0  0  0  0  0  0  0  0  0  0
   -0.7500   -1.2990    0.0000 C   0  0  0  0  0  0  0  0  0  0  0  0
   -1.5000    0.0000    0.0000 C   0  0  0  0  0  0  0  0  0  0  0  0
   -3.0000    0.0000    0.0000 C   0  0  0  0  0  0  0  0  0  0  0  0
   -3.7500   -1.2990    0.0000 O   0  0  0  0  0  0  0  0  0  0  0  0
   -3.7500    1.2990    0.0000 N   0  0  0  0  0  0  0  0  0  0  0  0
   -5.2500    1.2990    0.0000 C   0  0  0  0  0  0  0  0  0  0  0  0
   -6.1317    0.0855    0.0000 N   0  0  0  0  0  0  0  0  0  0  0  0
   -7.5583    0.5490    0.0000 N   0  0  0  0  0  0  0  0  0  0  0  0
   -7.5583    2.0490    0.0000 N   0  0  0  0  0  0  0  0  0  0  0  0
   -6.1317    2.5126    0.0000 N   0  0  0  0  0  0  0  0  0  0  0  0
   -5.6682    3.9391    0.0000 C   0  0  0  0  0  0  0  0  0  0  0  0
   -6.5498    5.1527    0.0000 C   0  0  0  0  0  0  0  0  0  0  0  0
   -5.6682    6.3662    0.0000 C   0  0  0  0  0  0  0  0  0  0  0  0
   -4.2416    5.9027    0.0000 C   0  0  0  0  0  0  0  0  0  0  0  0
   -3.0280    6.7844    0.0000 C   0  0  0  0  0  0  0  0  0  0  0  0
   -3.0280    8.2844    0.0000 N   0  0  0  0  0  0  0  0  0  0  0  0
   -1.6015    8.7479    0.0000 N   0  0  0  0  0  0  0  0  0  0  0  0
   -0.7198    7.5344    0.0000 N   0  0  0  0  0  0  0  0  0  0  0  0
   -1.6015    6.3208    0.0000 N   0  0  0  0  0  0  0  0  0  0  0  0
   -1.1379    4.8942    0.0000 C   0  0  0  0  0  0  0  0  0  0  0  0
   -2.1416    3.7795    0.0000 C   0  0  0  0  0  0  0  0  0  0  0  0
   -1.6781    2.3529    0.0000 C   0  0  0  0  0  0  0  0  0  0  0  0
   -0.2109    2.0411    0.0000 C   0  0  0  0  0  0  0  0  0  0  0  0
    0.7928    3.1558    0.0000 C   0  0  0  0  0  0  0  0  0  0  0  0
    0.3293    4.5824    0.0000 C   0  0  0  0  0  0  0  0  0  0  0  0
   -4.2416    4.4027    0.0000 C   0  0  0  0  0  0  0  0  0  0  0  0
   -3.0280    3.5210    0.0000 O   0  0  0  0  0  0  0  0  0  0  0  0
   -0.7500    1.2990    0.0000 C   0  0  0  0  0  0  0  0  0  0  0  0
    0.7500    1.2990    0.0000 C   0  0  0  0  0  0  0  0  0  0  0  0
  1  2  1  0
  2  3  2  0
  3  4  1  0
  4  5  2  0
  5  6  1  0
  6  7  2  0
  6  8  1  0
  8  9  1  0
  9 10  2  0
 10 11  1  0
 11 12  2  0
 12 13  1  0
 13 14  1  0
 14 15  2  0
 15 16  1  0
 16 17  2  0
 17 18  1  0
 18 19  2  0
 19 20  1  0
 20 21  2  0
 21 22  1  0
 22 23  1  0
 23 24  2  0
 24 25  1  0
 25 26  2  0
 26 27  1  0
 27 28  2  0
 17 29  1  0
 29 30  2  0
  5 31  1  0
 31 32  2  0
 32  2  1  0
 13  9  1  0
 29 14  1  0
 22 18  1  0
 28 23  1  0
M  END
>  <Title>  (1009) 
idABMUgen7

$$$$

     RDKit          2D

 30 34  0  0  0  0  0  0  0  0999 V2000
    3.0000    0.0000    0.0000 C   0  0  0  0  0  0  0  0  0  0  0  0
    1.5000    0.0000    0.0000 C   0  0  0  0  0  0  0  0  0  0  0  0
    0.7500    1.2990    0.0000 C   0  0  0  0  0  0  0  0  0  0  0  0
   -0.7500    1.2990    0.0000 C   0  0  0  0  0  0  0  0  0  0  0  0
   -1.5000    0.0000    0.0000 C   0  0  0  0  0  0  0  0  0  0  0  0
   -3.0000    0.0000    0.0000 C   0  0  0  0  0  0  0  0  0  0  0  0
   -3.8817   -1.2135    0.0000 C   0  0  0  0  0  0  0  0  0  0  0  0
   -5.3083   -0.7500    0.0000 N   0  0  0  0  0  0  0  0  0  0  0  0
   -5.3083    0.7500    0.0000 N   0  0  0  0  0  0  0  0  0  0  0  0
   -3.8817    1.2135    0.0000 N   0  0  0  0  0  0  0  0  0  0  0  0
   -3.4182    2.6401    0.0000 C   0  0  0  0  0  0  0  0  0  0  0  0
   -4.2998    3.8536    0.0000 C   0  0  0  0  0  0  0  0  0  0  0  0
   -3.4182    5.0672    0.0000 C   0  0  0  0  0  0  0  0  0  0  0  0
   -1.9916    4.6036    0.0000 C   0  0  0  0  0  0  0  0  0  0  0  0
   -0.7780    5.4853    0.0000 C   0  0  0  0  0  0  0  0  0  0  0  0
    0.6485    5.0218    0.0000 N   0  0  0  0  0  0  0  0  0  0  0  0
    1.5302    6.2353    0.0000 N   0  0  0  0  0  0  0  0  0  0  0  0
    0.6485    7.4488    0.0000 N   0  0  0  0  0  0  0  0  0  0  0  0
   -0.7780    6.9853    0.0000 N   0  0  0  0  0  0  0  0  0  0  0  0
   -1.9916    7.8670    0.0000 C   0  0  0  0  0  0  0  0  0  0  0  0
   -3.3619    7.2569    0.0000 C   0  0  0  0  0  0  0  0  0  0  0  0
   -4.5754    8.1386    0.0000 C   0  0  0  0  0  0  0  0  0  0  0  0
   -4.4186    9.6303    0.0000 C   0  0  0  0  0  0  0  0  0  0  0  0
   -3.0483   10.2405    0.0000 C   0  0  0  0  0  0  0  0  0  0  0  0
   -1.8348    9.3588    0.0000 C   0  0  0  0  0  0  0  0  0  0  0  0
   -1.9916    3.1036    0.0000 C   0  0  0  0  0  0  0  0  0  0  0  0
   -0.7780    2.2220    0.0000 O   0  0  0  0  0  0  0  0  0  0  0  0
   -0.7500   -1.2990    0.0000 C   0  0  0  0  0  0  0  0  0  0  0  0
   -1.5000   -2.5981    0.0000 O   0  0  0  0  0  0  0  0  0  0  0  0
    0.7500   -1.2990    0.0000 N   0  0  0  0  0  0  0  0  0  0  0  0
  1  2  1  0
  2  3  2  0
  3  4  1  0
  4  5  2  0
  5  6  1  0
  6  7  2  0
  7  8  1  0
  8  9  2  0
  9 10  1  0
 10 11  1  0
 11 12  2  0
 12 13  1  0
 13 14  2  0
 14 15  1  0
 15 16  2  0
 16 17  1  0
 17 18  2  0
 18 19  1  0
 19 20  1  0
 20 21  2  0
 21 22  1  0
 22 23  2  0
 23 24  1  0
 24 25  2  0
 14 26  1  0
 26 27  2  0
  5 28  1  0
 28 29  2  0
 28 30  1  0
 30  2  1  0
 10  6  1  0
 26 11  1  0
 19 15  1  0
 25 20  1  0
M  END
>  <Title>  (1010) 
idABMVgen7

$$$$

     RDKit          2D

 27 30  0  0  0  0  0  0  0  0999 V2000
    3.0000    0.0000    0.0000 C   0  0  0  0  0  0  0  0  0  0  0  0
    1.5000    0.0000    0.0000 C   0  0  0  0  0  0  0  0  0  0  0  0
    0.7500   -1.2990    0.0000 C   0  0  0  0  0  0  0  0  0  0  0  0
   -0.7500   -1.2990    0.0000 C   0  0  0  0  0  0  0  0  0  0  0  0
   -1.5000    0.0000    0.0000 C   0  0  0  0  0  0  0  0  0  0  0  0
   -3.0000    0.0000    0.0000 C   0  0  0  0  0  0  0  0  0  0  0  0
   -3.7500    1.2990    0.0000 C   0  0  0  0  0  0  0  0  0  0  0  0
   -5.2500    1.2990    0.0000 C   0  0  0  0  0  0  0  0  0  0  0  0
   -6.0000    0.0000    0.0000 C   0  0  0  0  0  0  0  0  0  0  0  0
   -7.5000    0.0000    0.0000 C   0  0  0  0  0  0  0  0  0  0  0  0
   -8.2500   -1.2990    0.0000 O   0  0  0  0  0  0  0  0  0  0  0  0
   -8.2500    1.2990    0.0000 N   0  0  0  0  0  0  0  0  0  0  0  0
   -9.7500    1.2990    0.0000 C   0  0  0  0  0  0  0  0  0  0  0  0
  -10.6317    0.0855    0.0000 N   0  0  0  0  0  0  0  0  0  0  0  0
  -12.0583    0.5490    0.0000 N   0  0  0  0  0  0  0  0  0  0  0  0
  -12.0583    2.0490    0.0000 N   0  0  0  0  0  0  0  0  0  0  0  0
  -10.6317    2.5126    0.0000 N   0  0  0  0  0  0  0  0  0  0  0  0
  -10.1682    3.9391    0.0000 C   0  0  0  0  0  0  0  0  0  0  0  0
   -8.7009    4.2510    0.0000 C   0  0  0  0  0  0  0  0  0  0  0  0
   -8.2374    5.6776    0.0000 C   0  0  0  0  0  0  0  0  0  0  0  0
   -9.2411    6.7923    0.0000 C   0  0  0  0  0  0  0  0  0  0  0  0
  -10.7083    6.4805    0.0000 C   0  0  0  0  0  0  0  0  0  0  0  0
  -11.1718    5.0539    0.0000 C   0  0  0  0  0  0  0  0  0  0  0  0
   -5.2500   -1.2990    0.0000 C   0  0  0  0  0  0  0  0  0  0  0  0
   -3.7500   -1.2990    0.0000 C   0  0  0  0  0  0  0  0  0  0  0  0
   -0.7500    1.2990    0.0000 C   0  0  0  0  0  0  0  0  0  0  0  0
    0.7500    1.2990    0.0000 C   0  0  0  0  0  0  0  0  0  0  0  0
  1  2  1  0
  2  3  2  0
  3  4  1  0
  4  5  2  0
  5  6  1  0
  6  7  2  0
  7  8  1  0
  8  9  2  0
  9 10  1  0
 10 11  2  0
 10 12  1  0
 12 13  1  0
 13 14  2  0
 14 15  1  0
 15 16  2  0
 16 17  1  0
 17 18  1  0
 18 19  2  0
 19 20  1  0
 20 21  2  0
 21 22  1  0
 22 23  2  0
  9 24  1  0
 24 25  2  0
  5 26  1  0
 26 27  2  0
 27  2  1  0
 25  6  1  0
 17 13  1  0
 23 18  1  0
M  END
>  <Title>  (1011) 
idABMWgen7

$$$$

     RDKit          2D

 41 47  0  0  0  0  0  0  0  0999 V2000
    8.5683   -1.2295    0.0000 C   0  0  0  0  0  0  0  0  0  0  0  0
    7.5646   -0.1148    0.0000 O   0  0  0  0  0  0  0  0  0  0  0  0
    6.0974   -0.4266    0.0000 C   0  0  0  0  0  0  0  0  0  0  0  0
    4.9826    0.5771    0.0000 C   0  0  0  0  0  0  0  0  0  0  0  0
    3.6836   -0.1729    0.0000 C   0  0  0  0  0  0  0  0  0  0  0  0
    3.9955   -1.6402    0.0000 C   0  0  0  0  0  0  0  0  0  0  0  0
    2.9918   -2.7549    0.0000 C   0  0  0  0  0  0  0  0  0  0  0  0
    3.3037   -4.2221    0.0000 C   0  0  0  0  0  0  0  0  0  0  0  0
    2.0046   -4.9721    0.0000 N   0  0  0  0  0  0  0  0  0  0  0  0
    0.8899   -3.9684    0.0000 N   0  0  0  0  0  0  0  0  0  0  0  0
    1.5000   -2.5981    0.0000 N   0  0  0  0  0  0  0  0  0  0  0  0
    0.7500   -1.2990    0.0000 C   0  0  0  0  0  0  0  0  0  0  0  0
    1.5000    0.0000    0.0000 C   0  0  0  0  0  0  0  0  0  0  0  0
    0.7500    1.2990    0.0000 C   0  0  0  0  0  0  0  0  0  0  0  0
   -0.7500    1.2990    0.0000 C   0  0  0  0  0  0  0  0  0  0  0  0
   -1.5000    2.5981    0.0000 C   0  0  0  0  0  0  0  0  0  0  0  0
   -2.9918    2.7549    0.0000 N   0  0  0  0  0  0  0  0  0  0  0  0
   -3.3037    4.2221    0.0000 N   0  0  0  0  0  0  0  0  0  0  0  0
   -2.0046    4.9721    0.0000 N   0  0  0  0  0  0  0  0  0  0  0  0
   -0.8899    3.9684    0.0000 N   0  0  0  0  0  0  0  0  0  0  0  0
    0.5773    4.2803    0.0000 C   0  0  0  0  0  0  0  0  0  0  0  0
    1.5810    3.1655    0.0000 C   0  0  0  0  0  0  0  0  0  0  0  0
    3.0482    3.4774    0.0000 C   0  0  0  0  0  0  0  0  0  0  0  0
    3.5118    4.9040    0.0000 C   0  0  0  0  0  0  0  0  0  0  0  0
    2.5081    6.0187    0.0000 C   0  0  0  0  0  0  0  0  0  0  0  0
    1.0409    5.7068    0.0000 C   0  0  0  0  0  0  0  0  0  0  0  0
   -1.5000    0.0000    0.0000 C   0  0  0  0  0  0  0  0  0  0  0  0
   -0.7500   -1.2990    0.0000 C   0  0  0  0  0  0  0  0  0  0  0  0
   -1.5000   -2.5981    0.0000 C   0  0  0  0  0  0  0  0  0  0  0  0
   -0.8899   -3.9684    0.0000 C   0  0  0  0  0  0  0  0  0  0  0  0
   -2.0046   -4.9721    0.0000 C   0  0  0  0  0  0  0  0  0  0  0  0
   -3.3037   -4.2221    0.0000 C   0  0  0  0  0  0  0  0  0  0  0  0
   -4.6740   -4.8322    0.0000 C   0  0  0  0  0  0  0  0  0  0  0  0
   -5.8875   -3.9505    0.0000 C   0  0  0  0  0  0  0  0  0  0  0  0
   -7.2578   -4.5606    0.0000 C   0  0  0  0  0  0  0  0  0  0  0  0
   -7.4146   -6.0524    0.0000 C   0  0  0  0  0  0  0  0  0  0  0  0
   -6.2011   -6.9341    0.0000 C   0  0  0  0  0  0  0  0  0  0  0  0
   -4.8308   -6.3240    0.0000 C   0  0  0  0  0  0  0  0  0  0  0  0
   -2.9918   -2.7549    0.0000 C   0  0  0  0  0  0  0  0  0  0  0  0
   -3.9955   -1.6402    0.0000 O   0  0  0  0  0  0  0  0  0  0  0  0
    5.4873   -1.7969    0.0000 C   0  0  0  0  0  0  0  0  0  0  0  0
  1  2  1  0
  2  3  1  0
  3  4  2  0
  4  5  1  0
  5  6  2  0
  6  7  1  0
  7  8  2  0
  8  9  1  0
  9 10  2  0
 10 11  1  0
 11 12  1  0
 12 13  2  0
 13 14  1  0
 14 15  2  0
 15 16  1  0
 16 17  2  0
 17 18  1  0
 18 19  2  0
 19 20  1  0
 20 21  1  0
 21 22  2  0
 22 23  1  0
 23 24  2  0
 24 25  1  0
 25 26  2  0
 15 27  1  0
 27 28  2  0
 28 29  1  0
 29 30  2  0
 30 31  1  0
 31 32  2  0
 32 33  1  0
 33 34  2  0
 34 35  1  0
 35 36  2  0
 36 37  1  0
 37 38  2  0
 32 39  1  0
 39 40  2  0
  6 41  1  0
 41  3  1  0
 11  7  1  0
 28 12  1  0
 39 29  1  0
 20 16  1  0
 26 21  1  0
 38 33  1  0
M  END
>  <Title>  (1012) 
idABMXgen7

$$$$

     RDKit          2D

 19 21  0  0  0  0  0  0  0  0999 V2000
   -1.5000    2.5981    0.0000 O   0  0  0  0  0  0  0  0  0  0  0  0
   -0.7500    1.2990    0.0000 C   0  0  0  0  0  0  0  0  0  0  0  0
   -1.5000    0.0000    0.0000 N   0  0  0  0  0  0  0  0  0  0  0  0
   -0.7500   -1.2990    0.0000 C   0  0  0  0  0  0  0  0  0  0  0  0
   -1.5000   -2.5981    0.0000 O   0  0  0  0  0  0  0  0  0  0  0  0
    0.7500   -1.2990    0.0000 C   0  0  0  0  0  0  0  0  0  0  0  0
    1.5000   -0.0000    0.0000 C   0  0  0  0  0  0  0  0  0  0  0  0
    0.7500    1.2990    0.0000 C   0  0  0  0  0  0  0  0  0  0  0  0
    1.5000    2.5981    0.0000 C   0  0  0  0  0  0  0  0  0  0  0  0
    0.8899    3.9684    0.0000 N   0  0  0  0  0  0  0  0  0  0  0  0
    2.0046    4.9721    0.0000 N   0  0  0  0  0  0  0  0  0  0  0  0
    3.3037    4.2221    0.0000 N   0  0  0  0  0  0  0  0  0  0  0  0
    2.9918    2.7549    0.0000 N   0  0  0  0  0  0  0  0  0  0  0  0
    3.9955    1.6402    0.0000 C   0  0  0  0  0  0  0  0  0  0  0  0
    3.5320    0.2136    0.0000 C   0  0  0  0  0  0  0  0  0  0  0  0
    4.5356   -0.9012    0.0000 C   0  0  0  0  0  0  0  0  0  0  0  0
    6.0029   -0.5893    0.0000 C   0  0  0  0  0  0  0  0  0  0  0  0
    6.4664    0.8373    0.0000 C   0  0  0  0  0  0  0  0  0  0  0  0
    5.4627    1.9520    0.0000 C   0  0  0  0  0  0  0  0  0  0  0  0
  1  2  2  0
  2  3  1  0
  3  4  1  0
  4  5  1  0
  4  6  2  0
  6  7  1  0
  7  8  2  0
  8  9  1  0
  9 10  2  0
 10 11  1  0
 11 12  2  0
 12 13  1  0
 13 14  1  0
 14 15  2  0
 15 16  1  0
 16 17  2  0
 17 18  1  0
 18 19  2  0
  8  2  1  0
 13  9  1  0
 19 14  1  0
M  END
>  <Title>  (1013) 
idABMYgen7

$$$$

     RDKit          2D

 47 54  0  0  0  0  0  0  0  0999 V2000
   -2.1129  -11.1403    0.0000 C   0  0  0  0  0  0  0  0  0  0  0  0
   -3.5684  -10.7774    0.0000 C   0  0  0  0  0  0  0  0  0  0  0  0
   -3.9818   -9.3355    0.0000 C   0  0  0  0  0  0  0  0  0  0  0  0
   -5.4373   -8.9726    0.0000 C   0  0  0  0  0  0  0  0  0  0  0  0
   -6.4792  -10.0516    0.0000 C   0  0  0  0  0  0  0  0  0  0  0  0
   -7.9347   -9.6888    0.0000 C   0  0  0  0  0  0  0  0  0  0  0  0
   -9.0838  -10.6529    0.0000 N   0  0  0  0  0  0  0  0  0  0  0  0
  -10.3558   -9.8581    0.0000 N   0  0  0  0  0  0  0  0  0  0  0  0
   -9.9929   -8.4026    0.0000 N   0  0  0  0  0  0  0  0  0  0  0  0
   -8.4966   -8.2980    0.0000 N   0  0  0  0  0  0  0  0  0  0  0  0
   -7.7017   -7.0259    0.0000 C   0  0  0  0  0  0  0  0  0  0  0  0
   -6.2026   -7.0783    0.0000 C   0  0  0  0  0  0  0  0  0  0  0  0
   -5.4077   -5.8062    0.0000 C   0  0  0  0  0  0  0  0  0  0  0  0
   -6.1120   -4.4818    0.0000 C   0  0  0  0  0  0  0  0  0  0  0  0
   -5.3171   -3.2097    0.0000 C   0  0  0  0  0  0  0  0  0  0  0  0
   -3.8499   -3.5216    0.0000 C   0  0  0  0  0  0  0  0  0  0  0  0
   -2.5254   -2.8174    0.0000 C   0  0  0  0  0  0  0  0  0  0  0  0
   -1.9635   -1.4266    0.0000 C   0  0  0  0  0  0  0  0  0  0  0  0
   -0.7500   -2.3083    0.0000 C   0  0  0  0  0  0  0  0  0  0  0  0
    0.7500   -2.3083    0.0000 C   0  0  0  0  0  0  0  0  0  0  0  0
    1.2135   -3.7348    0.0000 C   0  0  0  0  0  0  0  0  0  0  0  0
    0.3318   -4.9484    0.0000 N   0  0  0  0  0  0  0  0  0  0  0  0
    1.2135   -6.1619    0.0000 N   0  0  0  0  0  0  0  0  0  0  0  0
    2.6401   -5.6984    0.0000 N   0  0  0  0  0  0  0  0  0  0  0  0
    2.6401   -4.1984    0.0000 N   0  0  0  0  0  0  0  0  0  0  0  0
    3.8536   -3.3167    0.0000 C   0  0  0  0  0  0  0  0  0  0  0  0
    5.2240   -3.9268    0.0000 C   0  0  0  0  0  0  0  0  0  0  0  0
    6.4375   -3.0451    0.0000 C   0  0  0  0  0  0  0  0  0  0  0  0
    6.2807   -1.5533    0.0000 C   0  0  0  0  0  0  0  0  0  0  0  0
    4.9104   -0.9432    0.0000 C   0  0  0  0  0  0  0  0  0  0  0  0
    3.6968   -1.8249    0.0000 C   0  0  0  0  0  0  0  0  0  0  0  0
    1.9635   -1.4266    0.0000 C   0  0  0  0  0  0  0  0  0  0  0  0
    2.4271    0.0000    0.0000 C   0  0  0  0  0  0  0  0  0  0  0  0
    1.9635    1.4266    0.0000 C   0  0  0  0  0  0  0  0  0  0  0  0
    0.7500    2.3083    0.0000 C   0  0  0  0  0  0  0  0  0  0  0  0
   -0.7500    2.3083    0.0000 C   0  0  0  0  0  0  0  0  0  0  0  0
   -1.9635    1.4266    0.0000 C   0  0  0  0  0  0  0  0  0  0  0  0
   -2.4271    0.0000    0.0000 C   0  0  0  0  0  0  0  0  0  0  0  0
   -3.6991    0.7949    0.0000 N   0  0  0  0  0  0  0  0  0  0  0  0
   -5.1845    0.5861    0.0000 N   0  0  0  0  0  0  0  0  0  0  0  0
   -6.1882   -0.5286    0.0000 N   0  0  0  0  0  0  0  0  0  0  0  0
   -6.2406   -2.0277    0.0000 N   0  0  0  0  0  0  0  0  0  0  0  0
   -7.6110   -4.4294    0.0000 C   0  0  0  0  0  0  0  0  0  0  0  0
   -8.4059   -5.7015    0.0000 C   0  0  0  0  0  0  0  0  0  0  0  0
   -6.0658  -11.4935    0.0000 C   0  0  0  0  0  0  0  0  0  0  0  0
   -7.1078  -12.5725    0.0000 O   0  0  0  0  0  0  0  0  0  0  0  0
   -4.6103  -11.8564    0.0000 N   0  0  0  0  0  0  0  0  0  0  0  0
  1  2  1  0
  2  3  2  0
  3  4  1  0
  4  5  2  0
  5  6  1  0
  6  7  2  0
  7  8  1  0
  8  9  2  0
  9 10  1  0
 10 11  1  0
 11 12  2  0
 12 13  1  0
 13 14  2  0
 14 15  1  0
 15 16  2  0
 16 17  1  0
 17 18  2  0
 18 19  1  0
 19 20  2  0
 20 21  1  0
 21 22  2  0
 22 23  1  0
 23 24  2  0
 24 25  1  0
 25 26  1  0
 26 27  2  0
 27 28  1  0
 28 29  2  0
 29 30  1  0
 30 31  2  0
 20 32  1  0
 32 33  2  0
 33 34  1  0
 34 35  2  0
 35 36  1  0
 36 37  2  0
 37 38  1  0
 38 39  2  0
 39 40  1  0
 40 41  2  0
 41 42  1  0
 14 43  1  0
 43 44  2  0
  5 45  1  0
 45 46  2  0
 45 47  1  0
 47  2  1  0
 10  6  1  0
 44 11  1  0
 42 15  1  0
 38 18  1  0
 25 21  1  0
 31 26  1  0
 42 32  1  0
M  END
>  <Title>  (1014) 
idABMZgen7

$$$$

     RDKit          2D

 20 22  0  0  0  0  0  0  0  0999 V2000
    3.0000    0.0000    0.0000 C   0  0  0  0  0  0  0  0  0  0  0  0
    1.5000    0.0000    0.0000 C   0  0  0  0  0  0  0  0  0  0  0  0
    0.7500   -1.2990    0.0000 C   0  0  0  0  0  0  0  0  0  0  0  0
   -0.7500   -1.2990    0.0000 C   0  0  0  0  0  0  0  0  0  0  0  0
   -1.5000    0.0000    0.0000 C   0  0  0  0  0  0  0  0  0  0  0  0
   -3.0000    0.0000    0.0000 N   0  0  0  0  0  0  0  0  0  0  0  0
   -3.7500    1.2990    0.0000 C   0  0  0  0  0  0  0  0  0  0  0  0
   -5.2500    1.2990    0.0000 C   0  0  0  0  0  0  0  0  0  0  0  0
   -6.0000    0.0000    0.0000 N   0  0  0  0  0  0  0  0  0  0  0  0
   -7.5000    0.0000    0.0000 C   0  0  0  0  0  0  0  0  0  0  0  0
   -8.2500    1.2990    0.0000 C   0  0  0  0  0  0  0  0  0  0  0  0
   -9.7500    1.2990    0.0000 C   0  0  0  0  0  0  0  0  0  0  0  0
  -10.5000    0.0000    0.0000 C   0  0  0  0  0  0  0  0  0  0  0  0
   -9.7500   -1.2990    0.0000 C   0  0  0  0  0  0  0  0  0  0  0  0
   -8.2500   -1.2990    0.0000 C   0  0  0  0  0  0  0  0  0  0  0  0
   -5.2500   -1.2990    0.0000 N   0  0  0  0  0  0  0  0  0  0  0  0
   -3.7500   -1.2990    0.0000 N   0  0  0  0  0  0  0  0  0  0  0  0
   -0.7500    1.2990    0.0000 C   0  0  0  0  0  0  0  0  0  0  0  0
   -1.5000    2.5981    0.0000 O   0  0  0  0  0  0  0  0  0  0  0  0
    0.7500    1.2990    0.0000 N   0  0  0  0  0  0  0  0  0  0  0  0
  1  2  1  0
  2  3  2  0
  3  4  1  0
  4  5  2  0
  5  6  1  0
  6  7  1  0
  7  8  1  0
  8  9  1  0
  9 10  1  0
 10 11  2  0
 11 12  1  0
 12 13  2  0
 13 14  1  0
 14 15  2  0
  9 16  1  0
 16 17  2  0
  5 18  1  0
 18 19  2  0
 18 20  1  0
 20  2  1  0
 17  6  1  0
 15 10  1  0
M  END
>  <Title>  (1015) 
idABNAgen7

$$$$

     RDKit          2D

 48 54  0  0  0  0  0  0  0  0999 V2000
   -3.1455   -1.1277    0.0000 C   0  0  0  0  0  0  0  0  0  0  0  0
   -2.0119   -2.1100    0.0000 C   0  0  0  0  0  0  0  0  0  0  0  0
   -2.6350   -3.4744    0.0000 N   0  0  0  0  0  0  0  0  0  0  0  0
   -2.4215   -4.9592    0.0000 N   0  0  0  0  0  0  0  0  0  0  0  0
   -1.4392   -6.0928    0.0000 N   0  0  0  0  0  0  0  0  0  0  0  0
   -0.0000   -6.5154    0.0000 N   0  0  0  0  0  0  0  0  0  0  0  0
   -0.0000   -8.0154    0.0000 C   0  0  0  0  0  0  0  0  0  0  0  0
    1.2990   -8.7654    0.0000 C   0  0  0  0  0  0  0  0  0  0  0  0
    1.2990  -10.2654    0.0000 C   0  0  0  0  0  0  0  0  0  0  0  0
   -0.0000  -11.0154    0.0000 C   0  0  0  0  0  0  0  0  0  0  0  0
   -0.0000  -12.5154    0.0000 C   0  0  0  0  0  0  0  0  0  0  0  0
   -1.2990  -10.2654    0.0000 N   0  0  0  0  0  0  0  0  0  0  0  0
   -1.2990   -8.7654    0.0000 C   0  0  0  0  0  0  0  0  0  0  0  0
   -2.5981   -8.0154    0.0000 O   0  0  0  0  0  0  0  0  0  0  0  0
    1.4392   -6.0928    0.0000 C   0  0  0  0  0  0  0  0  0  0  0  0
    2.2502   -7.3547    0.0000 C   0  0  0  0  0  0  0  0  0  0  0  0
    3.7485   -7.2833    0.0000 C   0  0  0  0  0  0  0  0  0  0  0  0
    4.5595   -8.5452    0.0000 C   0  0  0  0  0  0  0  0  0  0  0  0
    3.8721   -9.8784    0.0000 C   0  0  0  0  0  0  0  0  0  0  0  0
    4.6831  -11.1403    0.0000 C   0  0  0  0  0  0  0  0  0  0  0  0
    6.1814  -11.0690    0.0000 C   0  0  0  0  0  0  0  0  0  0  0  0
    6.9923  -12.3308    0.0000 C   0  0  0  0  0  0  0  0  0  0  0  0
    6.3050  -13.6641    0.0000 C   0  0  0  0  0  0  0  0  0  0  0  0
    4.8067  -13.7355    0.0000 C   0  0  0  0  0  0  0  0  0  0  0  0
    3.9957  -12.4736    0.0000 C   0  0  0  0  0  0  0  0  0  0  0  0
    2.3738   -9.9498    0.0000 C   0  0  0  0  0  0  0  0  0  0  0  0
    1.5629   -8.6879    0.0000 C   0  0  0  0  0  0  0  0  0  0  0  0
    2.4215   -4.9592    0.0000 C   0  0  0  0  0  0  0  0  0  0  0  0
    2.6350   -3.4744    0.0000 C   0  0  0  0  0  0  0  0  0  0  0  0
    2.0119   -2.1100    0.0000 C   0  0  0  0  0  0  0  0  0  0  0  0
    0.7500   -1.2990    0.0000 C   0  0  0  0  0  0  0  0  0  0  0  0
    1.5000    0.0000    0.0000 C   0  0  0  0  0  0  0  0  0  0  0  0
    0.7500    1.2990    0.0000 C   0  0  0  0  0  0  0  0  0  0  0  0
    1.5000    2.5981    0.0000 C   0  0  0  0  0  0  0  0  0  0  0  0
    3.0000    2.5981    0.0000 C   0  0  0  0  0  0  0  0  0  0  0  0
    3.7500    3.8971    0.0000 C   0  0  0  0  0  0  0  0  0  0  0  0
    3.0000    5.1962    0.0000 C   0  0  0  0  0  0  0  0  0  0  0  0
    1.5000    5.1962    0.0000 C   0  0  0  0  0  0  0  0  0  0  0  0
    0.7500    3.8971    0.0000 C   0  0  0  0  0  0  0  0  0  0  0  0
   -0.7500    3.8971    0.0000 C   0  0  0  0  0  0  0  0  0  0  0  0
   -1.5000    5.1962    0.0000 C   0  0  0  0  0  0  0  0  0  0  0  0
   -3.0000    5.1962    0.0000 C   0  0  0  0  0  0  0  0  0  0  0  0
   -3.7500    3.8971    0.0000 C   0  0  0  0  0  0  0  0  0  0  0  0
   -3.0000    2.5981    0.0000 C   0  0  0  0  0  0  0  0  0  0  0  0
   -1.5000    2.5981    0.0000 C   0  0  0  0  0  0  0  0  0  0  0  0
   -0.7500    1.2990    0.0000 C   0  0  0  0  0  0  0  0  0  0  0  0
   -1.5000    0.0000    0.0000 C   0  0  0  0  0  0  0  0  0  0  0  0
   -0.7500   -1.2990    0.0000 C   0  0  0  0  0  0  0  0  0  0  0  0
  1  2  1  0
  2  3  2  0
  3  4  1  0
  4  5  2  0
  5  6  1  0
  6  7  1  0
  7  8  2  0
  8  9  1  0
  9 10  2  0
 10 11  1  0
 10 12  1  0
 12 13  1  0
 13 14  2  0
  6 15  1  0
 15 16  1  0
 16 17  2  0
 17 18  1  0
 18 19  2  0
 19 20  1  0
 20 21  2  0
 21 22  1  0
 22 23  2  0
 23 24  1  0
 24 25  2  0
 19 26  1  0
 26 27  2  0
 15 28  2  0
 28 29  1  0
 29 30  2  0
 30 31  1  0
 31 32  2  0
 32 33  1  0
 33 34  1  0
 34 35  2  0
 35 36  1  0
 36 37  2  0
 37 38  1  0
 38 39  2  0
 39 40  1  0
 40 41  2  0
 41 42  1  0
 42 43  2  0
 43 44  1  0
 44 45  2  0
 33 46  2  0
 46 47  1  0
 47 48  2  0
 48  2  1  0
 13  7  1  0
 27 16  1  0
 48 31  1  0
 25 20  1  0
 39 34  1  0
 45 40  1  0
M  END
>  <Title>  (1016) 
idABNBgen7

$$$$

     RDKit          2D

 44 50  0  0  0  0  0  0  0  0999 V2000
    3.0000    0.0000    0.0000 C   0  0  0  0  0  0  0  0  0  0  0  0
    1.5000    0.0000    0.0000 C   0  0  0  0  0  0  0  0  0  0  0  0
    0.7500   -1.2990    0.0000 C   0  0  0  0  0  0  0  0  0  0  0  0
   -0.7500   -1.2990    0.0000 C   0  0  0  0  0  0  0  0  0  0  0  0
   -1.5000    0.0000    0.0000 C   0  0  0  0  0  0  0  0  0  0  0  0
   -3.0000    0.0000    0.0000 C   0  0  0  0  0  0  0  0  0  0  0  0
   -3.7500   -1.2990    0.0000 O   0  0  0  0  0  0  0  0  0  0  0  0
   -3.7500    1.2990    0.0000 N   0  0  0  0  0  0  0  0  0  0  0  0
   -5.2500    1.2990    0.0000 C   0  0  0  0  0  0  0  0  0  0  0  0
   -6.1317    0.0855    0.0000 N   0  0  0  0  0  0  0  0  0  0  0  0
   -7.5583    0.5490    0.0000 N   0  0  0  0  0  0  0  0  0  0  0  0
   -7.5583    2.0490    0.0000 N   0  0  0  0  0  0  0  0  0  0  0  0
   -6.1317    2.5126    0.0000 N   0  0  0  0  0  0  0  0  0  0  0  0
   -5.6682    3.9391    0.0000 C   0  0  0  0  0  0  0  0  0  0  0  0
   -4.2009    4.2510    0.0000 C   0  0  0  0  0  0  0  0  0  0  0  0
   -3.7374    5.6776    0.0000 C   0  0  0  0  0  0  0  0  0  0  0  0
   -4.7411    6.7923    0.0000 C   0  0  0  0  0  0  0  0  0  0  0  0
   -4.2776    8.2189    0.0000 C   0  0  0  0  0  0  0  0  0  0  0  0
   -5.1593    9.4324    0.0000 N   0  0  0  0  0  0  0  0  0  0  0  0
   -4.2776   10.6460    0.0000 N   0  0  0  0  0  0  0  0  0  0  0  0
   -2.8510   10.1824    0.0000 N   0  0  0  0  0  0  0  0  0  0  0  0
   -2.8510    8.6824    0.0000 N   0  0  0  0  0  0  0  0  0  0  0  0
   -1.6375    7.8008    0.0000 C   0  0  0  0  0  0  0  0  0  0  0  0
   -1.6375    6.3008    0.0000 N   0  0  0  0  0  0  0  0  0  0  0  0
   -0.2109    5.8372    0.0000 N   0  0  0  0  0  0  0  0  0  0  0  0
    0.6708    7.0508    0.0000 N   0  0  0  0  0  0  0  0  0  0  0  0
   -0.2109    8.2643    0.0000 N   0  0  0  0  0  0  0  0  0  0  0  0
    0.2526    9.6909    0.0000 C   0  0  0  0  0  0  0  0  0  0  0  0
   -0.7511   10.8056    0.0000 C   0  0  0  0  0  0  0  0  0  0  0  0
   -0.2875   12.2322    0.0000 C   0  0  0  0  0  0  0  0  0  0  0  0
    1.1797   12.5440    0.0000 C   0  0  0  0  0  0  0  0  0  0  0  0
    1.6432   13.9706    0.0000 C   0  0  0  0  0  0  0  0  0  0  0  0
    0.6395   15.0853    0.0000 C   0  0  0  0  0  0  0  0  0  0  0  0
    1.1031   16.5119    0.0000 C   0  0  0  0  0  0  0  0  0  0  0  0
    2.5703   16.8238    0.0000 C   0  0  0  0  0  0  0  0  0  0  0  0
    3.5740   15.7091    0.0000 C   0  0  0  0  0  0  0  0  0  0  0  0
    3.1104   14.2825    0.0000 C   0  0  0  0  0  0  0  0  0  0  0  0
    2.1834   11.4293    0.0000 C   0  0  0  0  0  0  0  0  0  0  0  0
    1.7199   10.0027    0.0000 C   0  0  0  0  0  0  0  0  0  0  0  0
   -6.2083    6.4805    0.0000 C   0  0  0  0  0  0  0  0  0  0  0  0
   -6.6718    5.0539    0.0000 C   0  0  0  0  0  0  0  0  0  0  0  0
   -0.7500    1.2990    0.0000 C   0  0  0  0  0  0  0  0  0  0  0  0
   -1.5000    2.5981    0.0000 O   0  0  0  0  0  0  0  0  0  0  0  0
    0.7500    1.2990    0.0000 N   0  0  0  0  0  0  0  0  0  0  0  0
  1  2  1  0
  2  3  2  0
  3  4  1  0
  4  5  2  0
  5  6  1  0
  6  7  2  0
  6  8  1  0
  8  9  1  0
  9 10  2  0
 10 11  1  0
 11 12  2  0
 12 13  1  0
 13 14  1  0
 14 15  2  0
 15 16  1  0
 16 17  2  0
 17 18  1  0
 18 19  2  0
 19 20  1  0
 20 21  2  0
 21 22  1  0
 22 23  1  0
 23 24  2  0
 24 25  1  0
 25 26  2  0
 26 27  1  0
 27 28  1  0
 28 29  2  0
 29 30  1  0
 30 31  2  0
 31 32  1  0
 32 33  2  0
 33 34  1  0
 34 35  2  0
 35 36  1  0
 36 37  2  0
 31 38  1  0
 38 39  2  0
 17 40  1  0
 40 41  2  0
  5 42  1  0
 42 43  2  0
 42 44  1  0
 44  2  1  0
 13  9  1  0
 41 14  1  0
 22 18  1  0
 27 23  1  0
 39 28  1  0
 37 32  1  0
M  END
>  <Title>  (1017) 
idABNCgen7

$$$$

     RDKit          2D

 37 42  0  0  0  0  0  0  0  0999 V2000
    3.0000    0.0000    0.0000 C   0  0  0  0  0  0  0  0  0  0  0  0
    1.5000    0.0000    0.0000 C   0  0  0  0  0  0  0  0  0  0  0  0
    0.7500    1.2990    0.0000 C   0  0  0  0  0  0  0  0  0  0  0  0
   -0.7500    1.2990    0.0000 C   0  0  0  0  0  0  0  0  0  0  0  0
   -1.5000    0.0000    0.0000 C   0  0  0  0  0  0  0  0  0  0  0  0
   -3.0000    0.0000    0.0000 C   0  0  0  0  0  0  0  0  0  0  0  0
   -3.8817   -1.2135    0.0000 N   0  0  0  0  0  0  0  0  0  0  0  0
   -5.3083   -0.7500    0.0000 N   0  0  0  0  0  0  0  0  0  0  0  0
   -5.3083    0.7500    0.0000 N   0  0  0  0  0  0  0  0  0  0  0  0
   -3.8817    1.2135    0.0000 N   0  0  0  0  0  0  0  0  0  0  0  0
   -3.4182    2.6401    0.0000 C   0  0  0  0  0  0  0  0  0  0  0  0
   -1.9509    2.9520    0.0000 C   0  0  0  0  0  0  0  0  0  0  0  0
   -1.4874    4.3786    0.0000 C   0  0  0  0  0  0  0  0  0  0  0  0
   -2.4911    5.4933    0.0000 C   0  0  0  0  0  0  0  0  0  0  0  0
   -2.0276    6.9199    0.0000 C   0  0  0  0  0  0  0  0  0  0  0  0
   -2.9093    8.1334    0.0000 N   0  0  0  0  0  0  0  0  0  0  0  0
   -2.0276    9.3469    0.0000 N   0  0  0  0  0  0  0  0  0  0  0  0
   -0.6010    8.8834    0.0000 N   0  0  0  0  0  0  0  0  0  0  0  0
   -0.6010    7.3834    0.0000 N   0  0  0  0  0  0  0  0  0  0  0  0
    0.6125    6.5017    0.0000 C   0  0  0  0  0  0  0  0  0  0  0  0
    0.6125    5.0017    0.0000 C   0  0  0  0  0  0  0  0  0  0  0  0
    2.0391    4.5382    0.0000 C   0  0  0  0  0  0  0  0  0  0  0  0
    2.9208    5.7517    0.0000 C   0  0  0  0  0  0  0  0  0  0  0  0
    4.4208    5.7517    0.0000 C   0  0  0  0  0  0  0  0  0  0  0  0
    5.1708    7.0508    0.0000 C   0  0  0  0  0  0  0  0  0  0  0  0
    6.6708    7.0508    0.0000 C   0  0  0  0  0  0  0  0  0  0  0  0
    7.4208    5.7517    0.0000 C   0  0  0  0  0  0  0  0  0  0  0  0
    6.6708    4.4527    0.0000 C   0  0  0  0  0  0  0  0  0  0  0  0
    5.1708    4.4527    0.0000 C   0  0  0  0  0  0  0  0  0  0  0  0
    2.0391    6.9652    0.0000 C   0  0  0  0  0  0  0  0  0  0  0  0
    2.5026    8.3918    0.0000 O   0  0  0  0  0  0  0  0  0  0  0  0
   -3.9583    5.1814    0.0000 C   0  0  0  0  0  0  0  0  0  0  0  0
   -4.9620    6.2961    0.0000 O   0  0  0  0  0  0  0  0  0  0  0  0
   -4.4218    3.7548    0.0000 N   0  0  0  0  0  0  0  0  0  0  0  0
   -0.7500   -1.2990    0.0000 C   0  0  0  0  0  0  0  0  0  0  0  0
   -1.5000   -2.5981    0.0000 O   0  0  0  0  0  0  0  0  0  0  0  0
    0.7500   -1.2990    0.0000 N   0  0  0  0  0  0  0  0  0  0  0  0
  1  2  1  0
  2  3  2  0
  3  4  1  0
  4  5  2  0
  5  6  1  0
  6  7  2  0
  7  8  1  0
  8  9  2  0
  9 10  1  0
 10 11  1  0
 11 12  2  0
 12 13  1  0
 13 14  2  0
 14 15  1  0
 15 16  2  0
 16 17  1  0
 17 18  2  0
 18 19  1  0
 19 20  1  0
 20 21  2  0
 21 22  1  0
 22 23  2  0
 23 24  1  0
 24 25  2  0
 25 26  1  0
 26 27  2  0
 27 28  1  0
 28 29  2  0
 23 30  1  0
 30 31  2  0
 14 32  1  0
 32 33  2  0
 32 34  1  0
  5 35  1  0
 35 36  2  0
 35 37  1  0
 37  2  1  0
 10  6  1  0
 34 11  1  0
 19 15  1  0
 30 20  1  0
 29 24  1  0
M  END
>  <Title>  (1018) 
idABNDgen7

$$$$

     RDKit          2D

 26 29  0  0  0  0  0  0  0  0999 V2000
    3.7500   -1.2990    0.0000 C   0  0  0  0  0  0  0  0  0  0  0  0
    3.0000    0.0000    0.0000 O   0  0  0  0  0  0  0  0  0  0  0  0
    1.5000    0.0000    0.0000 C   0  0  0  0  0  0  0  0  0  0  0  0
    0.7500   -1.2990    0.0000 C   0  0  0  0  0  0  0  0  0  0  0  0
   -0.7500   -1.2990    0.0000 C   0  0  0  0  0  0  0  0  0  0  0  0
   -1.5000    0.0000    0.0000 C   0  0  0  0  0  0  0  0  0  0  0  0
   -3.0000    0.0000    0.0000 C   0  0  0  0  0  0  0  0  0  0  0  0
   -3.8817   -1.2135    0.0000 N   0  0  0  0  0  0  0  0  0  0  0  0
   -5.3083   -0.7500    0.0000 N   0  0  0  0  0  0  0  0  0  0  0  0
   -5.3083    0.7500    0.0000 N   0  0  0  0  0  0  0  0  0  0  0  0
   -3.8817    1.2135    0.0000 N   0  0  0  0  0  0  0  0  0  0  0  0
   -3.4182    2.6401    0.0000 C   0  0  0  0  0  0  0  0  0  0  0  0
   -1.9509    2.9520    0.0000 C   0  0  0  0  0  0  0  0  0  0  0  0
   -1.4874    4.3786    0.0000 C   0  0  0  0  0  0  0  0  0  0  0  0
   -2.4911    5.4933    0.0000 C   0  0  0  0  0  0  0  0  0  0  0  0
   -2.0276    6.9199    0.0000 C   0  0  0  0  0  0  0  0  0  0  0  0
   -0.5604    7.2317    0.0000 C   0  0  0  0  0  0  0  0  0  0  0  0
   -0.0968    8.6583    0.0000 C   0  0  0  0  0  0  0  0  0  0  0  0
   -1.1005    9.7730    0.0000 C   0  0  0  0  0  0  0  0  0  0  0  0
   -2.5677    9.4612    0.0000 C   0  0  0  0  0  0  0  0  0  0  0  0
   -3.0313    8.0346    0.0000 C   0  0  0  0  0  0  0  0  0  0  0  0
   -3.9583    5.1814    0.0000 C   0  0  0  0  0  0  0  0  0  0  0  0
   -4.9620    6.2961    0.0000 O   0  0  0  0  0  0  0  0  0  0  0  0
   -4.4218    3.7548    0.0000 N   0  0  0  0  0  0  0  0  0  0  0  0
   -0.7500    1.2990    0.0000 C   0  0  0  0  0  0  0  0  0  0  0  0
    0.7500    1.2990    0.0000 C   0  0  0  0  0  0  0  0  0  0  0  0
  1  2  1  0
  2  3  1  0
  3  4  2  0
  4  5  1  0
  5  6  2  0
  6  7  1  0
  7  8  2  0
  8  9  1  0
  9 10  2  0
 10 11  1  0
 11 12  1  0
 12 13  2  0
 13 14  1  0
 14 15  2  0
 15 16  1  0
 16 17  2  0
 17 18  1  0
 18 19  2  0
 19 20  1  0
 20 21  2  0
 15 22  1  0
 22 23  2  0
 22 24  1  0
  6 25  1  0
 25 26  2  0
 26  3  1  0
 11  7  1  0
 24 12  1  0
 21 16  1  0
M  END
>  <Title>  (1019) 
idABNEgen7

$$$$

     RDKit          2D

 31 34  0  0  0  0  0  0  0  0999 V2000
    3.7500   -1.2990    0.0000 C   0  0  0  0  0  0  0  0  0  0  0  0
    3.0000    0.0000    0.0000 O   0  0  0  0  0  0  0  0  0  0  0  0
    1.5000    0.0000    0.0000 C   0  0  0  0  0  0  0  0  0  0  0  0
    0.7500   -1.2990    0.0000 C   0  0  0  0  0  0  0  0  0  0  0  0
   -0.7500   -1.2990    0.0000 C   0  0  0  0  0  0  0  0  0  0  0  0
   -1.5000    0.0000    0.0000 C   0  0  0  0  0  0  0  0  0  0  0  0
   -3.0000    0.0000    0.0000 C   0  0  0  0  0  0  0  0  0  0  0  0
   -3.7500   -1.2990    0.0000 O   0  0  0  0  0  0  0  0  0  0  0  0
   -3.7500    1.2990    0.0000 N   0  0  0  0  0  0  0  0  0  0  0  0
   -5.2500    1.2990    0.0000 C   0  0  0  0  0  0  0  0  0  0  0  0
   -6.0000    0.0000    0.0000 O   0  0  0  0  0  0  0  0  0  0  0  0
   -6.0000    2.5981    0.0000 C   0  0  0  0  0  0  0  0  0  0  0  0
   -7.4918    2.7549    0.0000 N   0  0  0  0  0  0  0  0  0  0  0  0
   -7.8037    4.2221    0.0000 N   0  0  0  0  0  0  0  0  0  0  0  0
   -6.5046    4.9721    0.0000 N   0  0  0  0  0  0  0  0  0  0  0  0
   -5.3899    3.9684    0.0000 N   0  0  0  0  0  0  0  0  0  0  0  0
   -3.9227    4.2803    0.0000 C   0  0  0  0  0  0  0  0  0  0  0  0
   -2.9190    3.1655    0.0000 C   0  0  0  0  0  0  0  0  0  0  0  0
   -1.4518    3.4774    0.0000 C   0  0  0  0  0  0  0  0  0  0  0  0
   -0.9882    4.9040    0.0000 C   0  0  0  0  0  0  0  0  0  0  0  0
    0.4790    5.2159    0.0000 C   0  0  0  0  0  0  0  0  0  0  0  0
    1.4827    4.1011    0.0000 C   0  0  0  0  0  0  0  0  0  0  0  0
    2.9499    4.4130    0.0000 C   0  0  0  0  0  0  0  0  0  0  0  0
    3.4134    5.8396    0.0000 C   0  0  0  0  0  0  0  0  0  0  0  0
    2.4097    6.9543    0.0000 C   0  0  0  0  0  0  0  0  0  0  0  0
    0.9425    6.6424    0.0000 C   0  0  0  0  0  0  0  0  0  0  0  0
   -1.9919    6.0187    0.0000 C   0  0  0  0  0  0  0  0  0  0  0  0
   -3.4591    5.7068    0.0000 C   0  0  0  0  0  0  0  0  0  0  0  0
   -0.7500    1.2990    0.0000 C   0  0  0  0  0  0  0  0  0  0  0  0
   -1.5000    2.5981    0.0000 O   0  0  0  0  0  0  0  0  0  0  0  0
    0.7500    1.2990    0.0000 N   0  0  0  0  0  0  0  0  0  0  0  0
  1  2  1  0
  2  3  1  0
  3  4  2  0
  4  5  1  0
  5  6  2  0
  6  7  1  0
  7  8  2  0
  7  9  1  0
  9 10  1  0
 10 11  2  0
 10 12  1  0
 12 13  2  0
 13 14  1  0
 14 15  2  0
 15 16  1  0
 16 17  1  0
 17 18  2  0
 18 19  1  0
 19 20  2  0
 20 21  1  0
 21 22  2  0
 22 23  1  0
 23 24  2  0
 24 25  1  0
 25 26  2  0
 20 27  1  0
 27 28  2  0
  6 29  1  0
 29 30  2  0
 29 31  1  0
 31  3  1  0
 16 12  1  0
 28 17  1  0
 26 21  1  0
M  END
>  <Title>  (1020) 
idABNFgen7

$$$$

     RDKit          2D

 50 57  0  0  0  0  0  0  0  0999 V2000
   -7.6176   14.6138    0.0000 C   0  0  0  0  0  0  0  0  0  0  0  0
   -8.0811   13.1873    0.0000 C   0  0  0  0  0  0  0  0  0  0  0  0
   -9.5483   12.8754    0.0000 C   0  0  0  0  0  0  0  0  0  0  0  0
  -10.0118   11.4488    0.0000 C   0  0  0  0  0  0  0  0  0  0  0  0
   -9.0082   10.3341    0.0000 C   0  0  0  0  0  0  0  0  0  0  0  0
   -9.4717    8.9075    0.0000 C   0  0  0  0  0  0  0  0  0  0  0  0
  -10.9389    8.5956    0.0000 O   0  0  0  0  0  0  0  0  0  0  0  0
   -8.4680    7.7928    0.0000 N   0  0  0  0  0  0  0  0  0  0  0  0
   -8.9315    6.3662    0.0000 C   0  0  0  0  0  0  0  0  0  0  0  0
  -10.3581    5.9027    0.0000 N   0  0  0  0  0  0  0  0  0  0  0  0
  -10.3581    4.4027    0.0000 C   0  0  0  0  0  0  0  0  0  0  0  0
   -8.9315    3.9391    0.0000 N   0  0  0  0  0  0  0  0  0  0  0  0
   -8.0498    5.1527    0.0000 N   0  0  0  0  0  0  0  0  0  0  0  0
   -6.5498    5.1527    0.0000 C   0  0  0  0  0  0  0  0  0  0  0  0
   -5.6682    3.9391    0.0000 C   0  0  0  0  0  0  0  0  0  0  0  0
   -4.2416    4.4027    0.0000 C   0  0  0  0  0  0  0  0  0  0  0  0
   -4.2416    5.9027    0.0000 C   0  0  0  0  0  0  0  0  0  0  0  0
   -3.0280    6.7844    0.0000 C   0  0  0  0  0  0  0  0  0  0  0  0
   -3.0280    8.2844    0.0000 N   0  0  0  0  0  0  0  0  0  0  0  0
   -1.6015    8.7479    0.0000 N   0  0  0  0  0  0  0  0  0  0  0  0
   -0.7198    7.5344    0.0000 N   0  0  0  0  0  0  0  0  0  0  0  0
   -1.6015    6.3208    0.0000 N   0  0  0  0  0  0  0  0  0  0  0  0
   -1.1379    4.8942    0.0000 C   0  0  0  0  0  0  0  0  0  0  0  0
   -2.1416    3.7795    0.0000 C   0  0  0  0  0  0  0  0  0  0  0  0
   -1.6781    2.3529    0.0000 C   0  0  0  0  0  0  0  0  0  0  0  0
   -0.2109    2.0411    0.0000 C   0  0  0  0  0  0  0  0  0  0  0  0
    0.2526    0.6145    0.0000 C   0  0  0  0  0  0  0  0  0  0  0  0
    1.7199    0.3026    0.0000 C   0  0  0  0  0  0  0  0  0  0  0  0
    2.1834   -1.1240    0.0000 C   0  0  0  0  0  0  0  0  0  0  0  0
    1.1797   -2.2387    0.0000 C   0  0  0  0  0  0  0  0  0  0  0  0
   -0.2875   -1.9268    0.0000 C   0  0  0  0  0  0  0  0  0  0  0  0
   -0.7511   -0.5002    0.0000 C   0  0  0  0  0  0  0  0  0  0  0  0
    0.7928    3.1558    0.0000 C   0  0  0  0  0  0  0  0  0  0  0  0
    0.3293    4.5824    0.0000 C   0  0  0  0  0  0  0  0  0  0  0  0
    1.3330    5.6971    0.0000 C   0  0  0  0  0  0  0  0  0  0  0  0
    1.0211    7.1643    0.0000 N   0  0  0  0  0  0  0  0  0  0  0  0
    2.3202    7.9143    0.0000 N   0  0  0  0  0  0  0  0  0  0  0  0
    3.4349    6.9106    0.0000 N   0  0  0  0  0  0  0  0  0  0  0  0
    2.8248    5.5403    0.0000 N   0  0  0  0  0  0  0  0  0  0  0  0
    3.5748    4.2413    0.0000 C   0  0  0  0  0  0  0  0  0  0  0  0
    2.8248    2.9422    0.0000 C   0  0  0  0  0  0  0  0  0  0  0  0
    3.5748    1.6432    0.0000 C   0  0  0  0  0  0  0  0  0  0  0  0
    5.0748    1.6432    0.0000 C   0  0  0  0  0  0  0  0  0  0  0  0
    5.8248    2.9422    0.0000 C   0  0  0  0  0  0  0  0  0  0  0  0
    5.0748    4.2413    0.0000 C   0  0  0  0  0  0  0  0  0  0  0  0
   -5.6682    6.3662    0.0000 C   0  0  0  0  0  0  0  0  0  0  0  0
   -6.1317    7.7928    0.0000 O   0  0  0  0  0  0  0  0  0  0  0  0
   -7.5409   10.6460    0.0000 C   0  0  0  0  0  0  0  0  0  0  0  0
   -6.5372    9.5312    0.0000 O   0  0  0  0  0  0  0  0  0  0  0  0
   -7.0774   12.0725    0.0000 C   0  0  0  0  0  0  0  0  0  0  0  0
  1  2  1  0
  2  3  2  0
  3  4  1  0
  4  5  2  0
  5  6  1  0
  6  7  2  0
  6  8  1  0
  8  9  1  0
  9 10  2  0
 10 11  1  0
 11 12  2  0
 12 13  1  0
 13 14  1  0
 14 15  2  0
 15 16  1  0
 16 17  2  0
 17 18  1  0
 18 19  2  0
 19 20  1  0
 20 21  2  0
 21 22  1  0
 22 23  1  0
 23 24  2  0
 24 25  1  0
 25 26  2  0
 26 27  1  0
 27 28  2  0
 28 29  1  0
 29 30  2  0
 30 31  1  0
 31 32  2  0
 26 33  1  0
 33 34  2  0
 34 35  1  0
 35 36  2  0
 36 37  1  0
 37 38  2  0
 38 39  1  0
 39 40  1  0
 40 41  2  0
 41 42  1  0
 42 43  2  0
 43 44  1  0
 44 45  2  0
 17 46  1  0
 46 47  2  0
  5 48  1  0
 48 49  2  0
 48 50  1  0
 50  2  1  0
 13  9  1  0
 46 14  1  0
 22 18  1  0
 34 23  1  0
 39 35  1  0
 45 40  1  0
 32 27  1  0
M  END
>  <Title>  (1021) 
idABNGgen7

$$$$

     RDKit          2D

 32 35  0  0  0  0  0  0  0  0999 V2000
    3.7500   -1.2990    0.0000 C   0  0  0  0  0  0  0  0  0  0  0  0
    3.0000    0.0000    0.0000 O   0  0  0  0  0  0  0  0  0  0  0  0
    1.5000    0.0000    0.0000 C   0  0  0  0  0  0  0  0  0  0  0  0
    0.7500   -1.2990    0.0000 C   0  0  0  0  0  0  0  0  0  0  0  0
   -0.7500   -1.2990    0.0000 C   0  0  0  0  0  0  0  0  0  0  0  0
   -1.5000    0.0000    0.0000 C   0  0  0  0  0  0  0  0  0  0  0  0
   -3.0000    0.0000    0.0000 C   0  0  0  0  0  0  0  0  0  0  0  0
   -3.7500   -1.2990    0.0000 O   0  0  0  0  0  0  0  0  0  0  0  0
   -3.7500    1.2990    0.0000 N   0  0  0  0  0  0  0  0  0  0  0  0
   -5.2500    1.2990    0.0000 C   0  0  0  0  0  0  0  0  0  0  0  0
   -6.0000    2.5981    0.0000 C   0  0  0  0  0  0  0  0  0  0  0  0
   -7.5000    2.5981    0.0000 C   0  0  0  0  0  0  0  0  0  0  0  0
   -8.2500    1.2990    0.0000 C   0  0  0  0  0  0  0  0  0  0  0  0
   -9.7500    1.2990    0.0000 C   0  0  0  0  0  0  0  0  0  0  0  0
  -10.6317    0.0855    0.0000 N   0  0  0  0  0  0  0  0  0  0  0  0
  -12.0583    0.5490    0.0000 N   0  0  0  0  0  0  0  0  0  0  0  0
  -12.0583    2.0490    0.0000 N   0  0  0  0  0  0  0  0  0  0  0  0
  -10.6317    2.5126    0.0000 N   0  0  0  0  0  0  0  0  0  0  0  0
  -10.1682    3.9391    0.0000 C   0  0  0  0  0  0  0  0  0  0  0  0
   -8.7009    4.2510    0.0000 C   0  0  0  0  0  0  0  0  0  0  0  0
   -8.2374    5.6776    0.0000 C   0  0  0  0  0  0  0  0  0  0  0  0
   -9.2411    6.7923    0.0000 C   0  0  0  0  0  0  0  0  0  0  0  0
   -8.7776    8.2189    0.0000 C   0  0  0  0  0  0  0  0  0  0  0  0
   -9.7813    9.3336    0.0000 O   0  0  0  0  0  0  0  0  0  0  0  0
   -7.3104    8.5308    0.0000 N   0  0  0  0  0  0  0  0  0  0  0  0
   -6.8468    9.9574    0.0000 O   0  0  0  0  0  0  0  0  0  0  0  0
  -10.7083    6.4805    0.0000 C   0  0  0  0  0  0  0  0  0  0  0  0
  -11.1718    5.0539    0.0000 C   0  0  0  0  0  0  0  0  0  0  0  0
   -7.5000    0.0000    0.0000 C   0  0  0  0  0  0  0  0  0  0  0  0
   -6.0000    0.0000    0.0000 C   0  0  0  0  0  0  0  0  0  0  0  0
   -0.7500    1.2990    0.0000 C   0  0  0  0  0  0  0  0  0  0  0  0
    0.7500    1.2990    0.0000 C   0  0  0  0  0  0  0  0  0  0  0  0
  1  2  1  0
  2  3  1  0
  3  4  2  0
  4  5  1  0
  5  6  2  0
  6  7  1  0
  7  8  2  0
  7  9  1  0
  9 10  1  0
 10 11  2  0
 11 12  1  0
 12 13  2  0
 13 14  1  0
 14 15  2  0
 15 16  1  0
 16 17  2  0
 17 18  1  0
 18 19  1  0
 19 20  2  0
 20 21  1  0
 21 22  2  0
 22 23  1  0
 23 24  2  0
 23 25  1  0
 25 26  1  0
 22 27  1  0
 27 28  1  0
 13 29  1  0
 29 30  1  0
  6 31  1  0
 31 32  2  0
 32  3  1  0
 30 10  1  0
 18 14  1  0
 28 19  1  0
M  END
>  <Title>  (1022) 
idABNHgen7

$$$$

     RDKit          2D

 32 36  0  0  0  0  0  0  0  0999 V2000
    3.7500    1.2990    0.0000 C   0  0  0  0  0  0  0  0  0  0  0  0
    3.0000    0.0000    0.0000 O   0  0  0  0  0  0  0  0  0  0  0  0
    1.5000    0.0000    0.0000 C   0  0  0  0  0  0  0  0  0  0  0  0
    0.7500    1.2990    0.0000 C   0  0  0  0  0  0  0  0  0  0  0  0
   -0.7500    1.2990    0.0000 C   0  0  0  0  0  0  0  0  0  0  0  0
   -1.5000    0.0000    0.0000 C   0  0  0  0  0  0  0  0  0  0  0  0
   -3.0000    0.0000    0.0000 C   0  0  0  0  0  0  0  0  0  0  0  0
   -3.8817   -1.2135    0.0000 N   0  0  0  0  0  0  0  0  0  0  0  0
   -5.3083   -0.7500    0.0000 N   0  0  0  0  0  0  0  0  0  0  0  0
   -5.3083    0.7500    0.0000 N   0  0  0  0  0  0  0  0  0  0  0  0
   -3.8817    1.2135    0.0000 N   0  0  0  0  0  0  0  0  0  0  0  0
   -3.4182    2.6401    0.0000 C   0  0  0  0  0  0  0  0  0  0  0  0
   -1.9509    2.9520    0.0000 C   0  0  0  0  0  0  0  0  0  0  0  0
   -1.4874    4.3786    0.0000 C   0  0  0  0  0  0  0  0  0  0  0  0
   -2.4911    5.4933    0.0000 C   0  0  0  0  0  0  0  0  0  0  0  0
   -2.0276    6.9199    0.0000 C   0  0  0  0  0  0  0  0  0  0  0  0
   -0.5604    7.2317    0.0000 C   0  0  0  0  0  0  0  0  0  0  0  0
   -0.0968    8.6583    0.0000 C   0  0  0  0  0  0  0  0  0  0  0  0
   -1.1005    9.7730    0.0000 C   0  0  0  0  0  0  0  0  0  0  0  0
   -0.6370   11.1996    0.0000 C   0  0  0  0  0  0  0  0  0  0  0  0
    0.8302   11.5115    0.0000 C   0  0  0  0  0  0  0  0  0  0  0  0
    1.2937   12.9381    0.0000 C   0  0  0  0  0  0  0  0  0  0  0  0
    0.2901   14.0528    0.0000 C   0  0  0  0  0  0  0  0  0  0  0  0
   -1.1772   13.7409    0.0000 C   0  0  0  0  0  0  0  0  0  0  0  0
   -1.6407   12.3143    0.0000 C   0  0  0  0  0  0  0  0  0  0  0  0
   -2.5677    9.4612    0.0000 C   0  0  0  0  0  0  0  0  0  0  0  0
   -3.0313    8.0346    0.0000 C   0  0  0  0  0  0  0  0  0  0  0  0
   -3.9583    5.1814    0.0000 C   0  0  0  0  0  0  0  0  0  0  0  0
   -4.4218    3.7548    0.0000 N   0  0  0  0  0  0  0  0  0  0  0  0
   -0.7500   -1.2990    0.0000 C   0  0  0  0  0  0  0  0  0  0  0  0
   -1.5000   -2.5981    0.0000 O   0  0  0  0  0  0  0  0  0  0  0  0
    0.7500   -1.2990    0.0000 N   0  0  0  0  0  0  0  0  0  0  0  0
  1  2  1  0
  2  3  1  0
  3  4  2  0
  4  5  1  0
  5  6  2  0
  6  7  1  0
  7  8  2  0
  8  9  1  0
  9 10  2  0
 10 11  1  0
 11 12  1  0
 12 13  2  0
 13 14  1  0
 14 15  2  0
 15 16  1  0
 16 17  2  0
 17 18  1  0
 18 19  2  0
 19 20  1  0
 20 21  2  0
 21 22  1  0
 22 23  2  0
 23 24  1  0
 24 25  2  0
 19 26  1  0
 26 27  2  0
 15 28  1  0
 28 29  1  0
  6 30  1  0
 30 31  2  0
 30 32  1  0
 32  3  1  0
 11  7  1  0
 29 12  1  0
 27 16  1  0
 25 20  1  0
M  END
>  <Title>  (1023) 
idABNIgen7

$$$$

     RDKit          2D

 31 34  0  0  0  0  0  0  0  0999 V2000
    3.9786   -1.2990    0.0000 C   0  0  0  0  0  0  0  0  0  0  0  0
    3.2286   -0.0000    0.0000 O   0  0  0  0  0  0  0  0  0  0  0  0
    1.7286    0.0000    0.0000 C   0  0  0  0  0  0  0  0  0  0  0  0
    1.0777    1.3515    0.0000 C   0  0  0  0  0  0  0  0  0  0  0  0
   -0.3846    1.6852    0.0000 C   0  0  0  0  0  0  0  0  0  0  0  0
   -1.5574    0.7500    0.0000 C   0  0  0  0  0  0  0  0  0  0  0  0
   -2.7301    1.6852    0.0000 C   0  0  0  0  0  0  0  0  0  0  0  0
   -4.1925    1.3515    0.0000 C   0  0  0  0  0  0  0  0  0  0  0  0
   -4.8434   -0.0000    0.0000 C   0  0  0  0  0  0  0  0  0  0  0  0
   -4.1925   -1.3515    0.0000 C   0  0  0  0  0  0  0  0  0  0  0  0
   -5.1278   -2.5242    0.0000 C   0  0  0  0  0  0  0  0  0  0  0  0
   -6.6110   -2.3006    0.0000 C   0  0  0  0  0  0  0  0  0  0  0  0
   -7.5462   -3.4734    0.0000 C   0  0  0  0  0  0  0  0  0  0  0  0
   -6.9982   -4.8697    0.0000 O   0  0  0  0  0  0  0  0  0  0  0  0
   -9.0295   -3.2498    0.0000 N   0  0  0  0  0  0  0  0  0  0  0  0
   -9.9647   -4.4226    0.0000 C   0  0  0  0  0  0  0  0  0  0  0  0
  -11.4480   -4.1990    0.0000 C   0  0  0  0  0  0  0  0  0  0  0  0
  -12.3832   -5.3718    0.0000 C   0  0  0  0  0  0  0  0  0  0  0  0
  -11.8352   -6.7681    0.0000 C   0  0  0  0  0  0  0  0  0  0  0  0
  -12.7704   -7.9408    0.0000 C   0  0  0  0  0  0  0  0  0  0  0  0
  -14.2537   -7.7172    0.0000 C   0  0  0  0  0  0  0  0  0  0  0  0
  -15.1889   -8.8900    0.0000 C   0  0  0  0  0  0  0  0  0  0  0  0
  -14.6409  -10.2863    0.0000 C   0  0  0  0  0  0  0  0  0  0  0  0
  -13.1577  -10.5099    0.0000 C   0  0  0  0  0  0  0  0  0  0  0  0
  -12.2224   -9.3371    0.0000 C   0  0  0  0  0  0  0  0  0  0  0  0
  -10.3519   -6.9916    0.0000 C   0  0  0  0  0  0  0  0  0  0  0  0
   -9.4167   -5.8189    0.0000 C   0  0  0  0  0  0  0  0  0  0  0  0
   -2.7301   -1.6852    0.0000 C   0  0  0  0  0  0  0  0  0  0  0  0
   -1.5574   -0.7500    0.0000 C   0  0  0  0  0  0  0  0  0  0  0  0
   -0.3846   -1.6852    0.0000 C   0  0  0  0  0  0  0  0  0  0  0  0
    1.0777   -1.3515    0.0000 C   0  0  0  0  0  0  0  0  0  0  0  0
  1  2  1  0
  2  3  1  0
  3  4  2  0
  4  5  1  0
  5  6  2  0
  6  7  1  0
  7  8  2  0
  8  9  1  0
  9 10  2  0
 10 11  1  0
 11 12  1  0
 12 13  1  0
 13 14  2  0
 13 15  1  0
 15 16  1  0
 16 17  2  0
 17 18  1  0
 18 19  2  0
 19 20  1  0
 20 21  2  0
 21 22  1  0
 22 23  2  0
 23 24  1  0
 24 25  2  0
 19 26  1  0
 26 27  2  0
 10 28  1  0
 28 29  2  0
 29 30  1  0
 30 31  2  0
 31  3  1  0
 29  6  1  0
 27 16  1  0
 25 20  1  0
M  END
>  <Title>  (1024) 
idABNJgen7

$$$$

     RDKit          2D

 31 35  0  0  0  0  0  0  0  0999 V2000
    3.0000    0.0000    0.0000 C   0  0  0  0  0  0  0  0  0  0  0  0
    1.5000    0.0000    0.0000 C   0  0  0  0  0  0  0  0  0  0  0  0
    0.7500   -1.2990    0.0000 C   0  0  0  0  0  0  0  0  0  0  0  0
   -0.7500   -1.2990    0.0000 C   0  0  0  0  0  0  0  0  0  0  0  0
   -1.5000    0.0000    0.0000 C   0  0  0  0  0  0  0  0  0  0  0  0
   -3.0000    0.0000    0.0000 N   0  0  0  0  0  0  0  0  0  0  0  0
   -3.7500    1.2990    0.0000 N   0  0  0  0  0  0  0  0  0  0  0  0
   -5.2500    1.2990    0.0000 N   0  0  0  0  0  0  0  0  0  0  0  0
   -6.0000    0.0000    0.0000 N   0  0  0  0  0  0  0  0  0  0  0  0
   -5.2500   -1.2990    0.0000 N   0  0  0  0  0  0  0  0  0  0  0  0
   -3.7500   -1.2990    0.0000 N   0  0  0  0  0  0  0  0  0  0  0  0
   -3.0000   -2.5981    0.0000 C   0  0  0  0  0  0  0  0  0  0  0  0
   -1.5082   -2.7549    0.0000 C   0  0  0  0  0  0  0  0  0  0  0  0
   -1.1963   -4.2221    0.0000 C   0  0  0  0  0  0  0  0  0  0  0  0
   -2.4954   -4.9721    0.0000 C   0  0  0  0  0  0  0  0  0  0  0  0
   -2.6522   -6.4639    0.0000 C   0  0  0  0  0  0  0  0  0  0  0  0
   -1.5375   -7.4676    0.0000 N   0  0  0  0  0  0  0  0  0  0  0  0
   -2.1476   -8.8379    0.0000 N   0  0  0  0  0  0  0  0  0  0  0  0
   -3.6394   -8.6811    0.0000 N   0  0  0  0  0  0  0  0  0  0  0  0
   -3.9512   -7.2139    0.0000 N   0  0  0  0  0  0  0  0  0  0  0  0
   -5.3215   -6.6038    0.0000 C   0  0  0  0  0  0  0  0  0  0  0  0
   -5.4783   -5.1120    0.0000 C   0  0  0  0  0  0  0  0  0  0  0  0
   -6.8486   -4.5019    0.0000 C   0  0  0  0  0  0  0  0  0  0  0  0
   -8.0622   -5.3836    0.0000 C   0  0  0  0  0  0  0  0  0  0  0  0
   -7.9054   -6.8753    0.0000 C   0  0  0  0  0  0  0  0  0  0  0  0
   -6.5351   -7.4854    0.0000 C   0  0  0  0  0  0  0  0  0  0  0  0
   -3.6101   -3.9684    0.0000 C   0  0  0  0  0  0  0  0  0  0  0  0
   -5.0773   -4.2803    0.0000 O   0  0  0  0  0  0  0  0  0  0  0  0
   -0.7500    1.2990    0.0000 C   0  0  0  0  0  0  0  0  0  0  0  0
   -1.5000    2.5981    0.0000 O   0  0  0  0  0  0  0  0  0  0  0  0
    0.7500    1.2990    0.0000 N   0  0  0  0  0  0  0  0  0  0  0  0
  1  2  1  0
  2  3  2  0
  3  4  1  0
  4  5  2  0
  5  6  1  0
  6  7  1  0
  7  8  2  0
  8  9  1  0
  9 10  2  0
 10 11  1  0
 11 12  1  0
 12 13  2  0
 13 14  1  0
 14 15  2  0
 15 16  1  0
 16 17  2  0
 17 18  1  0
 18 19  2  0
 19 20  1  0
 20 21  1  0
 21 22  2  0
 22 23  1  0
 23 24  2  0
 24 25  1  0
 25 26  2  0
 15 27  1  0
 27 28  2  0
  5 29  1  0
 29 30  2  0
 29 31  1  0
 31  2  1  0
 11  6  1  0
 27 12  1  0
 20 16  1  0
 26 21  1  0
M  END
>  <Title>  (1025) 
idABNKgen7

$$$$

     RDKit          2D

 44 50  0  0  0  0  0  0  0  0999 V2000
    3.0000    0.0000    0.0000 C   0  0  0  0  0  0  0  0  0  0  0  0
    1.5000    0.0000    0.0000 C   0  0  0  0  0  0  0  0  0  0  0  0
    0.7500    1.2990    0.0000 C   0  0  0  0  0  0  0  0  0  0  0  0
   -0.7500    1.2990    0.0000 C   0  0  0  0  0  0  0  0  0  0  0  0
   -1.5000    0.0000    0.0000 C   0  0  0  0  0  0  0  0  0  0  0  0
   -3.0000    0.0000    0.0000 C   0  0  0  0  0  0  0  0  0  0  0  0
   -3.8817   -1.2135    0.0000 N   0  0  0  0  0  0  0  0  0  0  0  0
   -5.3083   -0.7500    0.0000 N   0  0  0  0  0  0  0  0  0  0  0  0
   -5.3083    0.7500    0.0000 N   0  0  0  0  0  0  0  0  0  0  0  0
   -3.8817    1.2135    0.0000 N   0  0  0  0  0  0  0  0  0  0  0  0
   -3.4182    2.6401    0.0000 C   0  0  0  0  0  0  0  0  0  0  0  0
   -1.9509    2.9520    0.0000 C   0  0  0  0  0  0  0  0  0  0  0  0
   -1.4874    4.3786    0.0000 C   0  0  0  0  0  0  0  0  0  0  0  0
   -2.4911    5.4933    0.0000 C   0  0  0  0  0  0  0  0  0  0  0  0
   -2.0276    6.9199    0.0000 C   0  0  0  0  0  0  0  0  0  0  0  0
   -2.9093    8.1334    0.0000 N   0  0  0  0  0  0  0  0  0  0  0  0
   -2.0276    9.3469    0.0000 N   0  0  0  0  0  0  0  0  0  0  0  0
   -0.6010    8.8834    0.0000 N   0  0  0  0  0  0  0  0  0  0  0  0
   -0.6010    7.3834    0.0000 N   0  0  0  0  0  0  0  0  0  0  0  0
    0.6125    6.5017    0.0000 C   0  0  0  0  0  0  0  0  0  0  0  0
    0.8472    5.0202    0.0000 C   0  0  0  0  0  0  0  0  0  0  0  0
    2.3287    5.2548    0.0000 C   0  0  0  0  0  0  0  0  0  0  0  0
    2.0941    6.7364    0.0000 C   0  0  0  0  0  0  0  0  0  0  0  0
    2.9757    7.9499    0.0000 C   0  0  0  0  0  0  0  0  0  0  0  0
    4.4675    7.7931    0.0000 C   0  0  0  0  0  0  0  0  0  0  0  0
    5.3492    9.0066    0.0000 C   0  0  0  0  0  0  0  0  0  0  0  0
    4.7391   10.3769    0.0000 C   0  0  0  0  0  0  0  0  0  0  0  0
    3.2473   10.5337    0.0000 C   0  0  0  0  0  0  0  0  0  0  0  0
    2.3656    9.3202    0.0000 C   0  0  0  0  0  0  0  0  0  0  0  0
   -3.9583    5.1814    0.0000 C   0  0  0  0  0  0  0  0  0  0  0  0
   -4.4218    3.7548    0.0000 C   0  0  0  0  0  0  0  0  0  0  0  0
   -5.8891    3.4430    0.0000 C   0  0  0  0  0  0  0  0  0  0  0  0
   -6.8928    4.5577    0.0000 C   0  0  0  0  0  0  0  0  0  0  0  0
   -8.3600    4.2458    0.0000 C   0  0  0  0  0  0  0  0  0  0  0  0
   -8.8235    2.8192    0.0000 C   0  0  0  0  0  0  0  0  0  0  0  0
  -10.2907    2.5074    0.0000 C   0  0  0  0  0  0  0  0  0  0  0  0
  -10.7543    1.0808    0.0000 O   0  0  0  0  0  0  0  0  0  0  0  0
  -11.2944    3.6221    0.0000 N   0  0  0  0  0  0  0  0  0  0  0  0
  -12.7617    3.3102    0.0000 O   0  0  0  0  0  0  0  0  0  0  0  0
   -7.8198    1.7045    0.0000 C   0  0  0  0  0  0  0  0  0  0  0  0
   -6.3526    2.0164    0.0000 C   0  0  0  0  0  0  0  0  0  0  0  0
   -0.7500   -1.2990    0.0000 C   0  0  0  0  0  0  0  0  0  0  0  0
   -1.5000   -2.5981    0.0000 O   0  0  0  0  0  0  0  0  0  0  0  0
    0.7500   -1.2990    0.0000 N   0  0  0  0  0  0  0  0  0  0  0  0
  1  2  1  0
  2  3  2  0
  3  4  1  0
  4  5  2  0
  5  6  1  0
  6  7  2  0
  7  8  1  0
  8  9  2  0
  9 10  1  0
 10 11  1  0
 11 12  2  0
 12 13  1  0
 13 14  2  0
 14 15  1  0
 15 16  2  0
 16 17  1  0
 17 18  2  0
 18 19  1  0
 19 20  1  0
 20 21  1  0
 21 22  1  0
 22 23  1  0
 23 24  1  0
 24 25  2  0
 25 26  1  0
 26 27  2  0
 27 28  1  0
 28 29  2  0
 14 30  1  0
 30 31  2  0
 31 32  1  0
 32 33  2  0
 33 34  1  0
 34 35  2  0
 35 36  1  0
 36 37  2  0
 36 38  1  0
 38 39  1  0
 35 40  1  0
 40 41  1  0
  5 42  1  0
 42 43  2  0
 42 44  1  0
 44  2  1  0
 10  6  1  0
 31 11  1  0
 41 32  1  0
 19 15  1  0
 23 20  1  0
 29 24  1  0
M  END
>  <Title>  (1026) 
idABNLgen7

$$$$

     RDKit          2D

 31 35  0  0  0  0  0  0  0  0999 V2000
    3.7500   -1.2990    0.0000 C   0  0  0  0  0  0  0  0  0  0  0  0
    3.0000    0.0000    0.0000 O   0  0  0  0  0  0  0  0  0  0  0  0
    1.5000    0.0000    0.0000 C   0  0  0  0  0  0  0  0  0  0  0  0
    0.7500   -1.2990    0.0000 C   0  0  0  0  0  0  0  0  0  0  0  0
   -0.7500   -1.2990    0.0000 C   0  0  0  0  0  0  0  0  0  0  0  0
   -1.5000    0.0000    0.0000 C   0  0  0  0  0  0  0  0  0  0  0  0
   -3.0000    0.0000    0.0000 C   0  0  0  0  0  0  0  0  0  0  0  0
   -3.8817   -1.2135    0.0000 N   0  0  0  0  0  0  0  0  0  0  0  0
   -5.3083   -0.7500    0.0000 N   0  0  0  0  0  0  0  0  0  0  0  0
   -5.3083    0.7500    0.0000 N   0  0  0  0  0  0  0  0  0  0  0  0
   -3.8817    1.2135    0.0000 N   0  0  0  0  0  0  0  0  0  0  0  0
   -3.4182    2.6401    0.0000 C   0  0  0  0  0  0  0  0  0  0  0  0
   -1.9509    2.9520    0.0000 C   0  0  0  0  0  0  0  0  0  0  0  0
   -1.4874    4.3786    0.0000 C   0  0  0  0  0  0  0  0  0  0  0  0
   -2.4911    5.4933    0.0000 C   0  0  0  0  0  0  0  0  0  0  0  0
   -2.0276    6.9199    0.0000 C   0  0  0  0  0  0  0  0  0  0  0  0
   -0.5604    7.2317    0.0000 C   0  0  0  0  0  0  0  0  0  0  0  0
   -0.0968    8.6583    0.0000 C   0  0  0  0  0  0  0  0  0  0  0  0
   -1.1005    9.7730    0.0000 C   0  0  0  0  0  0  0  0  0  0  0  0
   -2.5677    9.4612    0.0000 C   0  0  0  0  0  0  0  0  0  0  0  0
   -3.0313    8.0346    0.0000 C   0  0  0  0  0  0  0  0  0  0  0  0
   -3.9583    5.1814    0.0000 C   0  0  0  0  0  0  0  0  0  0  0  0
   -4.4218    3.7548    0.0000 C   0  0  0  0  0  0  0  0  0  0  0  0
   -5.8891    3.4430    0.0000 C   0  0  0  0  0  0  0  0  0  0  0  0
   -6.8928    4.5577    0.0000 C   0  0  0  0  0  0  0  0  0  0  0  0
   -8.3600    4.2458    0.0000 C   0  0  0  0  0  0  0  0  0  0  0  0
   -8.8235    2.8192    0.0000 C   0  0  0  0  0  0  0  0  0  0  0  0
   -7.8198    1.7045    0.0000 C   0  0  0  0  0  0  0  0  0  0  0  0
   -6.3526    2.0164    0.0000 C   0  0  0  0  0  0  0  0  0  0  0  0
   -0.7500    1.2990    0.0000 C   0  0  0  0  0  0  0  0  0  0  0  0
    0.7500    1.2990    0.0000 C   0  0  0  0  0  0  0  0  0  0  0  0
  1  2  1  0
  2  3  1  0
  3  4  2  0
  4  5  1  0
  5  6  2  0
  6  7  1  0
  7  8  2  0
  8  9  1  0
  9 10  2  0
 10 11  1  0
 11 12  1  0
 12 13  2  0
 13 14  1  0
 14 15  2  0
 15 16  1  0
 16 17  2  0
 17 18  1  0
 18 19  2  0
 19 20  1  0
 20 21  2  0
 15 22  1  0
 22 23  2  0
 23 24  1  0
 24 25  2  0
 25 26  1  0
 26 27  2  0
 27 28  1  0
 28 29  2  0
  6 30  1  0
 30 31  1  0
 31  3  1  0
 11  7  1  0
 23 12  1  0
 29 24  1  0
 21 16  1  0
M  END
>  <Title>  (1027) 
idABNMgen7

$$$$

     RDKit          2D

 28 31  0  0  0  0  0  0  0  0999 V2000
    3.0000    0.0000    0.0000 C   0  0  0  0  0  0  0  0  0  0  0  0
    1.5000    0.0000    0.0000 C   0  0  0  0  0  0  0  0  0  0  0  0
    0.7500   -1.2990    0.0000 C   0  0  0  0  0  0  0  0  0  0  0  0
   -0.7500   -1.2990    0.0000 C   0  0  0  0  0  0  0  0  0  0  0  0
   -1.5000    0.0000    0.0000 C   0  0  0  0  0  0  0  0  0  0  0  0
   -3.0000    0.0000    0.0000 N   0  0  0  0  0  0  0  0  0  0  0  0
   -3.7500    1.2990    0.0000 N   0  0  0  0  0  0  0  0  0  0  0  0
   -5.2500    1.2990    0.0000 N   0  0  0  0  0  0  0  0  0  0  0  0
   -6.0000    0.0000    0.0000 N   0  0  0  0  0  0  0  0  0  0  0  0
   -5.2500   -1.2990    0.0000 N   0  0  0  0  0  0  0  0  0  0  0  0
   -3.7500   -1.2990    0.0000 N   0  0  0  0  0  0  0  0  0  0  0  0
   -3.0000   -2.5981    0.0000 C   0  0  0  0  0  0  0  0  0  0  0  0
   -1.5000   -2.5981    0.0000 C   0  0  0  0  0  0  0  0  0  0  0  0
   -0.7500   -3.8971    0.0000 C   0  0  0  0  0  0  0  0  0  0  0  0
   -1.5000   -5.1962    0.0000 C   0  0  0  0  0  0  0  0  0  0  0  0
   -3.0000   -5.1962    0.0000 C   0  0  0  0  0  0  0  0  0  0  0  0
   -3.7500   -3.8971    0.0000 C   0  0  0  0  0  0  0  0  0  0  0  0
   -5.2500   -3.8971    0.0000 C   0  0  0  0  0  0  0  0  0  0  0  0
   -6.0000   -5.1962    0.0000 C   0  0  0  0  0  0  0  0  0  0  0  0
   -7.5000   -5.1962    0.0000 C   0  0  0  0  0  0  0  0  0  0  0  0
   -8.2500   -3.8971    0.0000 C   0  0  0  0  0  0  0  0  0  0  0  0
   -9.7500   -3.8971    0.0000 C   0  0  0  0  0  0  0  0  0  0  0  0
   -7.5000   -2.5981    0.0000 C   0  0  0  0  0  0  0  0  0  0  0  0
   -8.2500   -1.2990    0.0000 O   0  0  0  0  0  0  0  0  0  0  0  0
   -6.0000   -2.5981    0.0000 N   0  0  0  0  0  0  0  0  0  0  0  0
   -0.7500    1.2990    0.0000 C   0  0  0  0  0  0  0  0  0  0  0  0
   -1.5000    2.5981    0.0000 O   0  0  0  0  0  0  0  0  0  0  0  0
    0.7500    1.2990    0.0000 N   0  0  0  0  0  0  0  0  0  0  0  0
  1  2  1  0
  2  3  2  0
  3  4  1  0
  4  5  2  0
  5  6  1  0
  6  7  1  0
  7  8  2  0
  8  9  1  0
  9 10  2  0
 10 11  1  0
 11 12  1  0
 12 13  2  0
 13 14  1  0
 14 15  2  0
 15 16  1  0
 16 17  2  0
 17 18  1  0
 18 19  2  0
 19 20  1  0
 20 21  2  0
 21 22  1  0
 21 23  1  0
 23 24  2  0
 23 25  1  0
  5 26  1  0
 26 27  2  0
 26 28  1  0
 28  2  1  0
 11  6  1  0
 17 12  1  0
 25 18  1  0
M  END
>  <Title>  (1028) 
idABNNgen7

$$$$

     RDKit          2D

 36 40  0  0  0  0  0  0  0  0999 V2000
    3.0000    0.0000    0.0000 C   0  0  0  0  0  0  0  0  0  0  0  0
    1.5000    0.0000    0.0000 C   0  0  0  0  0  0  0  0  0  0  0  0
    0.7500   -1.2990    0.0000 C   0  0  0  0  0  0  0  0  0  0  0  0
   -0.7500   -1.2990    0.0000 C   0  0  0  0  0  0  0  0  0  0  0  0
   -1.5000    0.0000    0.0000 C   0  0  0  0  0  0  0  0  0  0  0  0
   -3.0000    0.0000    0.0000 C   0  0  0  0  0  0  0  0  0  0  0  0
   -3.7500   -1.2990    0.0000 O   0  0  0  0  0  0  0  0  0  0  0  0
   -3.7500    1.2990    0.0000 N   0  0  0  0  0  0  0  0  0  0  0  0
   -5.2500    1.2990    0.0000 C   0  0  0  0  0  0  0  0  0  0  0  0
   -6.3107    2.3597    0.0000 N   0  0  0  0  0  0  0  0  0  0  0  0
   -7.3713    1.2990    0.0000 C   0  0  0  0  0  0  0  0  0  0  0  0
   -8.8713    1.2990    0.0000 C   0  0  0  0  0  0  0  0  0  0  0  0
   -9.6213    0.0000    0.0000 O   0  0  0  0  0  0  0  0  0  0  0  0
   -9.6213    2.5981    0.0000 N   0  0  0  0  0  0  0  0  0  0  0  0
  -11.1213    2.5981    0.0000 C   0  0  0  0  0  0  0  0  0  0  0  0
  -12.0030    1.3846    0.0000 N   0  0  0  0  0  0  0  0  0  0  0  0
  -13.4296    1.8481    0.0000 N   0  0  0  0  0  0  0  0  0  0  0  0
  -13.4296    3.3481    0.0000 N   0  0  0  0  0  0  0  0  0  0  0  0
  -12.0030    3.8116    0.0000 N   0  0  0  0  0  0  0  0  0  0  0  0
  -11.5395    5.2382    0.0000 C   0  0  0  0  0  0  0  0  0  0  0  0
  -10.0723    5.5501    0.0000 C   0  0  0  0  0  0  0  0  0  0  0  0
   -9.6087    6.9766    0.0000 C   0  0  0  0  0  0  0  0  0  0  0  0
  -10.6124    8.0914    0.0000 C   0  0  0  0  0  0  0  0  0  0  0  0
  -10.1489    9.5179    0.0000 C   0  0  0  0  0  0  0  0  0  0  0  0
   -8.6817    9.8298    0.0000 C   0  0  0  0  0  0  0  0  0  0  0  0
   -8.2181   11.2564    0.0000 C   0  0  0  0  0  0  0  0  0  0  0  0
   -9.2218   12.3711    0.0000 C   0  0  0  0  0  0  0  0  0  0  0  0
  -10.6891   12.0592    0.0000 C   0  0  0  0  0  0  0  0  0  0  0  0
  -11.1526   10.6327    0.0000 C   0  0  0  0  0  0  0  0  0  0  0  0
  -12.0796    7.7795    0.0000 C   0  0  0  0  0  0  0  0  0  0  0  0
  -12.5432    6.3529    0.0000 C   0  0  0  0  0  0  0  0  0  0  0  0
   -6.3107    0.2384    0.0000 C   0  0  0  0  0  0  0  0  0  0  0  0
   -6.3107   -1.2616    0.0000 O   0  0  0  0  0  0  0  0  0  0  0  0
   -0.7500    1.2990    0.0000 N   0  0  0  0  0  0  0  0  0  0  0  0
    0.7500    1.2990    0.0000 C   0  0  0  0  0  0  0  0  0  0  0  0
    1.5000    2.5981    0.0000 O   0  0  0  0  0  0  0  0  0  0  0  0
  1  2  1  0
  2  3  2  0
  3  4  1  0
  4  5  2  0
  5  6  1  0
  6  7  2  0
  6  8  1  0
  8  9  1  0
  9 10  2  0
 10 11  1  0
 11 12  1  0
 12 13  2  0
 12 14  1  0
 14 15  1  0
 15 16  2  0
 16 17  1  0
 17 18  2  0
 18 19  1  0
 19 20  1  0
 20 21  2  0
 21 22  1  0
 22 23  2  0
 23 24  1  0
 24 25  2  0
 25 26  1  0
 26 27  2  0
 27 28  1  0
 28 29  2  0
 23 30  1  0
 30 31  2  0
 11 32  1  0
 32 33  2  0
  5 34  1  0
 34 35  1  0
 35 36  2  0
 35  2  1  0
 32  9  1  0
 19 15  1  0
 31 20  1  0
 29 24  1  0
M  END
>  <Title>  (1029) 
idABNOgen7

$$$$

     RDKit          2D

 33 37  0  0  0  0  0  0  0  0999 V2000
    3.0000    0.0000    0.0000 C   0  0  0  0  0  0  0  0  0  0  0  0
    1.5000    0.0000    0.0000 C   0  0  0  0  0  0  0  0  0  0  0  0
    0.7500    1.2990    0.0000 C   0  0  0  0  0  0  0  0  0  0  0  0
   -0.7500    1.2990    0.0000 C   0  0  0  0  0  0  0  0  0  0  0  0
   -1.5000    0.0000    0.0000 C   0  0  0  0  0  0  0  0  0  0  0  0
   -3.0000    0.0000    0.0000 C   0  0  0  0  0  0  0  0  0  0  0  0
   -3.8817   -1.2135    0.0000 N   0  0  0  0  0  0  0  0  0  0  0  0
   -5.3083   -0.7500    0.0000 N   0  0  0  0  0  0  0  0  0  0  0  0
   -5.3083    0.7500    0.0000 N   0  0  0  0  0  0  0  0  0  0  0  0
   -3.8817    1.2135    0.0000 N   0  0  0  0  0  0  0  0  0  0  0  0
   -3.4182    2.6401    0.0000 C   0  0  0  0  0  0  0  0  0  0  0  0
   -1.9509    2.9520    0.0000 C   0  0  0  0  0  0  0  0  0  0  0  0
   -1.4874    4.3786    0.0000 C   0  0  0  0  0  0  0  0  0  0  0  0
   -2.4911    5.4933    0.0000 C   0  0  0  0  0  0  0  0  0  0  0  0
   -2.0276    6.9199    0.0000 C   0  0  0  0  0  0  0  0  0  0  0  0
   -0.5604    7.2317    0.0000 N   0  0  0  0  0  0  0  0  0  0  0  0
   -0.0968    8.6583    0.0000 C   0  0  0  0  0  0  0  0  0  0  0  0
   -1.1005    9.7730    0.0000 O   0  0  0  0  0  0  0  0  0  0  0  0
    1.3704    8.9702    0.0000 C   0  0  0  0  0  0  0  0  0  0  0  0
    2.4851    9.9739    0.0000 C   0  0  0  0  0  0  0  0  0  0  0  0
    2.7970    8.5067    0.0000 C   0  0  0  0  0  0  0  0  0  0  0  0
    3.8007    7.3919    0.0000 N   0  0  0  0  0  0  0  0  0  0  0  0
    3.3371    5.9654    0.0000 C   0  0  0  0  0  0  0  0  0  0  0  0
    1.8699    5.6535    0.0000 C   0  0  0  0  0  0  0  0  0  0  0  0
    1.4064    4.2269    0.0000 C   0  0  0  0  0  0  0  0  0  0  0  0
    2.4101    3.1122    0.0000 C   0  0  0  0  0  0  0  0  0  0  0  0
    3.8773    3.4241    0.0000 C   0  0  0  0  0  0  0  0  0  0  0  0
    4.3408    4.8506    0.0000 C   0  0  0  0  0  0  0  0  0  0  0  0
   -3.9583    5.1814    0.0000 C   0  0  0  0  0  0  0  0  0  0  0  0
   -4.4218    3.7548    0.0000 C   0  0  0  0  0  0  0  0  0  0  0  0
   -0.7500   -1.2990    0.0000 C   0  0  0  0  0  0  0  0  0  0  0  0
   -1.5000   -2.5981    0.0000 O   0  0  0  0  0  0  0  0  0  0  0  0
    0.7500   -1.2990    0.0000 N   0  0  0  0  0  0  0  0  0  0  0  0
  1  2  1  0
  2  3  2  0
  3  4  1  0
  4  5  2  0
  5  6  1  0
  6  7  2  0
  7  8  1  0
  8  9  2  0
  9 10  1  0
 10 11  1  0
 11 12  2  0
 12 13  1  0
 13 14  2  0
 14 15  1  0
 15 16  1  0
 16 17  1  0
 17 18  2  0
 17 19  1  0
 19 20  1  0
 20 21  1  0
 21 22  2  3
 22 23  1  0
 23 24  2  0
 24 25  1  0
 25 26  2  0
 26 27  1  0
 27 28  2  0
 14 29  1  0
 29 30  2  0
  5 31  1  0
 31 32  2  0
 31 33  1  0
 33  2  1  0
 10  6  1  0
 30 11  1  0
 21 19  1  0
 28 23  1  0
M  END
>  <Title>  (1030) 
idABNPgen7

$$$$

     RDKit          2D

 18 18  0  0  0  0  0  0  0  0999 V2000
    6.0944   -1.2990    0.0000 C   0  0  0  0  0  0  0  0  0  0  0  0
    5.3444    0.0000    0.0000 O   0  0  0  0  0  0  0  0  0  0  0  0
    3.8444    0.0000    0.0000 C   0  0  0  0  0  0  0  0  0  0  0  0
    3.5517   -1.4712    0.0000 C   0  0  0  0  0  0  0  0  0  0  0  0
    2.7184   -2.7184    0.0000 C   0  0  0  0  0  0  0  0  0  0  0  0
    1.4712   -3.5517    0.0000 C   0  0  0  0  0  0  0  0  0  0  0  0
   -0.0000   -3.8444    0.0000 C   0  0  0  0  0  0  0  0  0  0  0  0
   -1.4712   -3.5517    0.0000 C   0  0  0  0  0  0  0  0  0  0  0  0
   -2.7184   -2.7184    0.0000 C   0  0  0  0  0  0  0  0  0  0  0  0
   -3.5517   -1.4712    0.0000 C   0  0  0  0  0  0  0  0  0  0  0  0
   -3.8444    0.0000    0.0000 C   0  0  0  0  0  0  0  0  0  0  0  0
   -3.5517    1.4712    0.0000 C   0  0  0  0  0  0  0  0  0  0  0  0
   -2.7184    2.7184    0.0000 C   0  0  0  0  0  0  0  0  0  0  0  0
   -1.4712    3.5517    0.0000 C   0  0  0  0  0  0  0  0  0  0  0  0
    0.0000    3.8444    0.0000 C   0  0  0  0  0  0  0  0  0  0  0  0
    1.4712    3.5517    0.0000 C   0  0  0  0  0  0  0  0  0  0  0  0
    2.7184    2.7184    0.0000 C   0  0  0  0  0  0  0  0  0  0  0  0
    3.5517    1.4712    0.0000 C   0  0  0  0  0  0  0  0  0  0  0  0
  1  2  1  0
  2  3  1  0
  3  4  2  0
  4  5  1  0
  5  6  2  0
  6  7  1  0
  7  8  2  0
  8  9  1  0
  9 10  2  0
 10 11  1  0
 11 12  2  0
 12 13  1  0
 13 14  2  0
 14 15  1  0
 15 16  2  0
 16 17  1  0
 17 18  2  0
 18  3  1  0
M  END
>  <Title>  (1031) 
idABNQgen7

$$$$

     RDKit          2D

 23 25  0  0  0  0  0  0  0  0999 V2000
    3.7500   -1.2990    0.0000 C   0  0  0  0  0  0  0  0  0  0  0  0
    3.0000    0.0000    0.0000 O   0  0  0  0  0  0  0  0  0  0  0  0
    1.5000    0.0000    0.0000 C   0  0  0  0  0  0  0  0  0  0  0  0
    0.7500   -1.2990    0.0000 C   0  0  0  0  0  0  0  0  0  0  0  0
   -0.7500   -1.2990    0.0000 C   0  0  0  0  0  0  0  0  0  0  0  0
   -1.5000    0.0000    0.0000 C   0  0  0  0  0  0  0  0  0  0  0  0
   -3.0000    0.0000    0.0000 C   0  0  0  0  0  0  0  0  0  0  0  0
   -3.7500   -1.2990    0.0000 O   0  0  0  0  0  0  0  0  0  0  0  0
   -3.7500    1.2990    0.0000 N   0  0  0  0  0  0  0  0  0  0  0  0
   -5.2500    1.2990    0.0000 C   0  0  0  0  0  0  0  0  0  0  0  0
   -6.1317    0.0855    0.0000 N   0  0  0  0  0  0  0  0  0  0  0  0
   -7.5583    0.5490    0.0000 N   0  0  0  0  0  0  0  0  0  0  0  0
   -7.5583    2.0490    0.0000 N   0  0  0  0  0  0  0  0  0  0  0  0
   -6.1317    2.5126    0.0000 N   0  0  0  0  0  0  0  0  0  0  0  0
   -5.6682    3.9391    0.0000 C   0  0  0  0  0  0  0  0  0  0  0  0
   -4.2009    4.2510    0.0000 C   0  0  0  0  0  0  0  0  0  0  0  0
   -3.7374    5.6776    0.0000 C   0  0  0  0  0  0  0  0  0  0  0  0
   -4.7411    6.7923    0.0000 C   0  0  0  0  0  0  0  0  0  0  0  0
   -6.2083    6.4805    0.0000 C   0  0  0  0  0  0  0  0  0  0  0  0
   -6.6718    5.0539    0.0000 C   0  0  0  0  0  0  0  0  0  0  0  0
   -0.7500    1.2990    0.0000 C   0  0  0  0  0  0  0  0  0  0  0  0
   -1.5000    2.5981    0.0000 O   0  0  0  0  0  0  0  0  0  0  0  0
    0.7500    1.2990    0.0000 N   0  0  0  0  0  0  0  0  0  0  0  0
  1  2  1  0
  2  3  1  0
  3  4  2  0
  4  5  1  0
  5  6  2  0
  6  7  1  0
  7  8  2  0
  7  9  1  0
  9 10  1  0
 10 11  2  0
 11 12  1  0
 12 13  2  0
 13 14  1  0
 14 15  1  0
 15 16  2  0
 16 17  1  0
 17 18  2  0
 18 19  1  0
 19 20  2  0
  6 21  1  0
 21 22  2  0
 21 23  1  0
 23  3  1  0
 14 10  1  0
 20 15  1  0
M  END
>  <Title>  (1032) 
idABNRgen7

$$$$

     RDKit          2D

 45 51  0  0  0  0  0  0  0  0999 V2000
    0.1082   13.6047    0.0000 C   0  0  0  0  0  0  0  0  0  0  0  0
   -1.2621   12.9946    0.0000 C   0  0  0  0  0  0  0  0  0  0  0  0
   -2.4756   13.8763    0.0000 C   0  0  0  0  0  0  0  0  0  0  0  0
   -3.8459   13.2662    0.0000 C   0  0  0  0  0  0  0  0  0  0  0  0
   -4.0027   11.7744    0.0000 C   0  0  0  0  0  0  0  0  0  0  0  0
   -5.3730   11.1643    0.0000 C   0  0  0  0  0  0  0  0  0  0  0  0
   -6.5866   12.0460    0.0000 O   0  0  0  0  0  0  0  0  0  0  0  0
   -5.5298    9.6725    0.0000 N   0  0  0  0  0  0  0  0  0  0  0  0
   -6.9002    9.0624    0.0000 C   0  0  0  0  0  0  0  0  0  0  0  0
   -8.1992    9.8124    0.0000 N   0  0  0  0  0  0  0  0  0  0  0  0
   -9.3139    8.8087    0.0000 N   0  0  0  0  0  0  0  0  0  0  0  0
   -8.7038    7.4384    0.0000 N   0  0  0  0  0  0  0  0  0  0  0  0
   -7.2120    7.5952    0.0000 N   0  0  0  0  0  0  0  0  0  0  0  0
   -6.2083    6.4805    0.0000 C   0  0  0  0  0  0  0  0  0  0  0  0
   -4.7411    6.7923    0.0000 C   0  0  0  0  0  0  0  0  0  0  0  0
   -3.7374    5.6776    0.0000 C   0  0  0  0  0  0  0  0  0  0  0  0
   -4.2009    4.2510    0.0000 C   0  0  0  0  0  0  0  0  0  0  0  0
   -5.6682    3.9391    0.0000 C   0  0  0  0  0  0  0  0  0  0  0  0
   -6.6718    5.0539    0.0000 C   0  0  0  0  0  0  0  0  0  0  0  0
   -8.1391    4.7420    0.0000 N   0  0  0  0  0  0  0  0  0  0  0  0
   -9.1428    5.8567    0.0000 N   0  0  0  0  0  0  0  0  0  0  0  0
  -10.6100    5.5448    0.0000 N   0  0  0  0  0  0  0  0  0  0  0  0
  -11.0735    4.1183    0.0000 N   0  0  0  0  0  0  0  0  0  0  0  0
  -10.0698    3.0035    0.0000 N   0  0  0  0  0  0  0  0  0  0  0  0
   -8.6026    3.3154    0.0000 N   0  0  0  0  0  0  0  0  0  0  0  0
   -7.5989    2.2007    0.0000 C   0  0  0  0  0  0  0  0  0  0  0  0
   -8.0624    0.7741    0.0000 C   0  0  0  0  0  0  0  0  0  0  0  0
   -7.0587   -0.3406    0.0000 C   0  0  0  0  0  0  0  0  0  0  0  0
   -5.5915   -0.0287    0.0000 C   0  0  0  0  0  0  0  0  0  0  0  0
   -4.5878   -1.1435    0.0000 C   0  0  0  0  0  0  0  0  0  0  0  0
   -3.0960   -0.9867    0.0000 N   0  0  0  0  0  0  0  0  0  0  0  0
   -2.4859   -2.3570    0.0000 N   0  0  0  0  0  0  0  0  0  0  0  0
   -3.6006   -3.3607    0.0000 N   0  0  0  0  0  0  0  0  0  0  0  0
   -4.8997   -2.6107    0.0000 N   0  0  0  0  0  0  0  0  0  0  0  0
   -6.2700   -3.2208    0.0000 C   0  0  0  0  0  0  0  0  0  0  0  0
   -7.4835   -2.3391    0.0000 C   0  0  0  0  0  0  0  0  0  0  0  0
   -8.8538   -2.9492    0.0000 C   0  0  0  0  0  0  0  0  0  0  0  0
   -9.0106   -4.4410    0.0000 C   0  0  0  0  0  0  0  0  0  0  0  0
   -7.7971   -5.3227    0.0000 C   0  0  0  0  0  0  0  0  0  0  0  0
   -6.4268   -4.7126    0.0000 C   0  0  0  0  0  0  0  0  0  0  0  0
   -5.1280    1.3978    0.0000 C   0  0  0  0  0  0  0  0  0  0  0  0
   -6.1317    2.5126    0.0000 C   0  0  0  0  0  0  0  0  0  0  0  0
   -2.7892   10.8927    0.0000 C   0  0  0  0  0  0  0  0  0  0  0  0
   -2.9460    9.4009    0.0000 O   0  0  0  0  0  0  0  0  0  0  0  0
   -1.4189   11.5028    0.0000 N   0  0  0  0  0  0  0  0  0  0  0  0
  1  2  1  0
  2  3  2  0
  3  4  1  0
  4  5  2  0
  5  6  1  0
  6  7  2  0
  6  8  1  0
  8  9  1  0
  9 10  2  0
 10 11  1  0
 11 12  2  0
 12 13  1  0
 13 14  1  0
 14 15  2  0
 15 16  1  0
 16 17  2  0
 17 18  1  0
 18 19  2  0
 19 20  1  0
 20 21  1  0
 21 22  2  0
 22 23  1  0
 23 24  2  0
 24 25  1  0
 25 26  1  0
 26 27  2  0
 27 28  1  0
 28 29  2  0
 29 30  1  0
 30 31  2  0
 31 32  1  0
 32 33  2  0
 33 34  1  0
 34 35  1  0
 35 36  2  0
 36 37  1  0
 37 38  2  0
 38 39  1  0
 39 40  2  0
 29 41  1  0
 41 42  2  0
  5 43  1  0
 43 44  2  0
 43 45  1  0
 45  2  1  0
 13  9  1  0
 19 14  1  0
 25 20  1  0
 42 26  1  0
 34 30  1  0
 40 35  1  0
M  END
>  <Title>  (1033) 
idABNSgen7

$$$$

     RDKit          2D

  8  8  0  0  0  0  0  0  0  0999 V2000
    3.0000    0.0000    0.0000 C   0  0  0  0  0  0  0  0  0  0  0  0
    1.5000    0.0000    0.0000 C   0  0  0  0  0  0  0  0  0  0  0  0
    0.7500   -1.2990    0.0000 C   0  0  0  0  0  0  0  0  0  0  0  0
   -0.7500   -1.2990    0.0000 C   0  0  0  0  0  0  0  0  0  0  0  0
   -1.5000    0.0000    0.0000 C   0  0  0  0  0  0  0  0  0  0  0  0
   -3.0000    0.0000    0.0000 C   0  0  0  0  0  0  0  0  0  0  0  0
   -0.7500    1.2990    0.0000 N   0  0  0  0  0  0  0  0  0  0  0  0
    0.7500    1.2990    0.0000 C   0  0  0  0  0  0  0  0  0  0  0  0
  1  2  1  0
  2  3  2  0
  3  4  1  0
  4  5  2  0
  5  6  1  0
  5  7  1  0
  7  8  2  0
  8  2  1  0
M  END
>  <Title>  (1034) 
idABNTgen7

$$$$

     RDKit          2D

 24 26  0  0  0  0  0  0  0  0999 V2000
    8.4670    0.3216    0.0000 C   0  0  0  0  0  0  0  0  0  0  0  0
    7.0575    0.8346    0.0000 C   0  0  0  0  0  0  0  0  0  0  0  0
    5.9084   -0.1296    0.0000 C   0  0  0  0  0  0  0  0  0  0  0  0
    4.4989    0.3835    0.0000 C   0  0  0  0  0  0  0  0  0  0  0  0
    4.2384    1.8607    0.0000 C   0  0  0  0  0  0  0  0  0  0  0  0
    2.8289    2.3737    0.0000 C   0  0  0  0  0  0  0  0  0  0  0  0
    2.5684    3.8509    0.0000 O   0  0  0  0  0  0  0  0  0  0  0  0
    1.6798    1.4095    0.0000 N   0  0  0  0  0  0  0  0  0  0  0  0
    2.1929    0.0000    0.0000 N   0  0  0  0  0  0  0  0  0  0  0  0
    1.6798   -1.4095    0.0000 N   0  0  0  0  0  0  0  0  0  0  0  0
    0.3808   -2.1595    0.0000 N   0  0  0  0  0  0  0  0  0  0  0  0
   -1.0964   -1.8991    0.0000 C   0  0  0  0  0  0  0  0  0  0  0  0
   -1.8913   -3.1711    0.0000 C   0  0  0  0  0  0  0  0  0  0  0  0
   -1.3294   -4.5619    0.0000 O   0  0  0  0  0  0  0  0  0  0  0  0
   -3.3467   -2.8083    0.0000 N   0  0  0  0  0  0  0  0  0  0  0  0
   -3.4514   -1.3119    0.0000 C   0  0  0  0  0  0  0  0  0  0  0  0
   -4.7235   -0.5170    0.0000 O   0  0  0  0  0  0  0  0  0  0  0  0
   -2.0606   -0.7500    0.0000 C   0  0  0  0  0  0  0  0  0  0  0  0
   -2.0606    0.7500    0.0000 C   0  0  0  0  0  0  0  0  0  0  0  0
   -1.0964    1.8991    0.0000 C   0  0  0  0  0  0  0  0  0  0  0  0
    0.3808    2.1595    0.0000 C   0  0  0  0  0  0  0  0  0  0  0  0
    0.6413    3.6368    0.0000 C   0  0  0  0  0  0  0  0  0  0  0  0
    5.3875    2.8249    0.0000 C   0  0  0  0  0  0  0  0  0  0  0  0
    6.7970    2.3118    0.0000 C   0  0  0  0  0  0  0  0  0  0  0  0
  1  2  1  0
  2  3  2  0
  3  4  1  0
  4  5  1  0
  5  6  1  0
  6  7  2  0
  6  8  1  0
  8  9  1  0
  9 10  2  0
 10 11  1  0
 11 12  2  0
 12 13  1  0
 13 14  2  0
 13 15  1  0
 15 16  1  0
 16 17  2  0
 16 18  1  0
 18 19  2  0
 19 20  1  0
 20 21  2  0
 21 22  1  0
  5 23  1  0
 23 24  2  0
 24  2  1  0
 21  8  1  0
 18 12  1  0
M  END
>  <Title>  (1035) 
idABNUgen7

$$$$

     RDKit          2D

 31 34  0  0  0  0  0  0  0  0999 V2000
    6.3019    5.8189    0.0000 C   0  0  0  0  0  0  0  0  0  0  0  0
    4.8187    6.0424    0.0000 O   0  0  0  0  0  0  0  0  0  0  0  0
    3.8835    4.8697    0.0000 C   0  0  0  0  0  0  0  0  0  0  0  0
    4.4315    3.4734    0.0000 C   0  0  0  0  0  0  0  0  0  0  0  0
    3.4962    2.3006    0.0000 C   0  0  0  0  0  0  0  0  0  0  0  0
    2.0130    2.5242    0.0000 C   0  0  0  0  0  0  0  0  0  0  0  0
    1.0777    1.3515    0.0000 N   0  0  0  0  0  0  0  0  0  0  0  0
    1.7286    0.0000    0.0000 C   0  0  0  0  0  0  0  0  0  0  0  0
    1.0777   -1.3515    0.0000 C   0  0  0  0  0  0  0  0  0  0  0  0
   -0.3846   -1.6852    0.0000 C   0  0  0  0  0  0  0  0  0  0  0  0
   -0.7184   -3.1476    0.0000 C   0  0  0  0  0  0  0  0  0  0  0  0
    0.3812   -4.1679    0.0000 O   0  0  0  0  0  0  0  0  0  0  0  0
   -2.1518   -3.5898    0.0000 N   0  0  0  0  0  0  0  0  0  0  0  0
   -2.4856   -5.0522    0.0000 C   0  0  0  0  0  0  0  0  0  0  0  0
   -3.9189   -5.4943    0.0000 C   0  0  0  0  0  0  0  0  0  0  0  0
   -4.2527   -6.9567    0.0000 C   0  0  0  0  0  0  0  0  0  0  0  0
   -3.1531   -7.9769    0.0000 C   0  0  0  0  0  0  0  0  0  0  0  0
   -3.4869   -9.4393    0.0000 C   0  0  0  0  0  0  0  0  0  0  0  0
   -4.9203   -9.8815    0.0000 C   0  0  0  0  0  0  0  0  0  0  0  0
   -5.2541  -11.3439    0.0000 C   0  0  0  0  0  0  0  0  0  0  0  0
   -4.1545  -12.3641    0.0000 C   0  0  0  0  0  0  0  0  0  0  0  0
   -2.7211  -11.9220    0.0000 C   0  0  0  0  0  0  0  0  0  0  0  0
   -2.3873  -10.4596    0.0000 C   0  0  0  0  0  0  0  0  0  0  0  0
   -1.7198   -7.5348    0.0000 C   0  0  0  0  0  0  0  0  0  0  0  0
   -1.3860   -6.0724    0.0000 C   0  0  0  0  0  0  0  0  0  0  0  0
   -1.5574   -0.7500    0.0000 N   0  0  0  0  0  0  0  0  0  0  0  0
   -1.5574    0.7500    0.0000 N   0  0  0  0  0  0  0  0  0  0  0  0
   -0.3846    1.6852    0.0000 N   0  0  0  0  0  0  0  0  0  0  0  0
    1.4650    3.9205    0.0000 C   0  0  0  0  0  0  0  0  0  0  0  0
   -0.0183    4.1441    0.0000 O   0  0  0  0  0  0  0  0  0  0  0  0
    2.4002    5.0933    0.0000 N   0  0  0  0  0  0  0  0  0  0  0  0
  1  2  1  0
  2  3  1  0
  3  4  2  0
  4  5  1  0
  5  6  2  0
  6  7  1  0
  7  8  1  0
  8  9  2  0
  9 10  1  0
 10 11  1  0
 11 12  2  0
 11 13  1  0
 13 14  1  0
 14 15  2  0
 15 16  1  0
 16 17  2  0
 17 18  1  0
 18 19  2  0
 19 20  1  0
 20 21  2  0
 21 22  1  0
 22 23  2  0
 17 24  1  0
 24 25  2  0
 10 26  2  0
 26 27  1  0
 27 28  2  0
  6 29  1  0
 29 30  2  0
 29 31  1  0
 31  3  1  0
 28  7  1  0
 25 14  1  0
 23 18  1  0
M  END
>  <Title>  (1036) 
idABNVgen7

$$$$

     RDKit          2D

 29 33  0  0  0  0  0  0  0  0999 V2000
    3.0000    0.0000    0.0000 C   0  0  0  0  0  0  0  0  0  0  0  0
    1.5000    0.0000    0.0000 C   0  0  0  0  0  0  0  0  0  0  0  0
    0.7500   -1.2990    0.0000 C   0  0  0  0  0  0  0  0  0  0  0  0
   -0.7500   -1.2990    0.0000 C   0  0  0  0  0  0  0  0  0  0  0  0
   -1.5000    0.0000    0.0000 C   0  0  0  0  0  0  0  0  0  0  0  0
   -3.0000    0.0000    0.0000 C   0  0  0  0  0  0  0  0  0  0  0  0
   -3.8817   -1.2135    0.0000 N   0  0  0  0  0  0  0  0  0  0  0  0
   -5.3083   -0.7500    0.0000 N   0  0  0  0  0  0  0  0  0  0  0  0
   -5.3083    0.7500    0.0000 N   0  0  0  0  0  0  0  0  0  0  0  0
   -3.8817    1.2135    0.0000 N   0  0  0  0  0  0  0  0  0  0  0  0
   -3.4182    2.6401    0.0000 C   0  0  0  0  0  0  0  0  0  0  0  0
   -1.9509    2.9520    0.0000 C   0  0  0  0  0  0  0  0  0  0  0  0
   -1.4874    4.3786    0.0000 C   0  0  0  0  0  0  0  0  0  0  0  0
   -2.4911    5.4933    0.0000 C   0  0  0  0  0  0  0  0  0  0  0  0
   -2.0276    6.9199    0.0000 C   0  0  0  0  0  0  0  0  0  0  0  0
   -2.9093    8.1334    0.0000 N   0  0  0  0  0  0  0  0  0  0  0  0
   -2.0276    9.3469    0.0000 N   0  0  0  0  0  0  0  0  0  0  0  0
   -0.6010    8.8834    0.0000 N   0  0  0  0  0  0  0  0  0  0  0  0
   -0.6010    7.3834    0.0000 N   0  0  0  0  0  0  0  0  0  0  0  0
    0.6125    6.5017    0.0000 C   0  0  0  0  0  0  0  0  0  0  0  0
    0.4557    5.0099    0.0000 C   0  0  0  0  0  0  0  0  0  0  0  0
    1.6693    4.1283    0.0000 C   0  0  0  0  0  0  0  0  0  0  0  0
    3.0396    4.7384    0.0000 C   0  0  0  0  0  0  0  0  0  0  0  0
    3.1964    6.2301    0.0000 C   0  0  0  0  0  0  0  0  0  0  0  0
    1.9829    7.1118    0.0000 C   0  0  0  0  0  0  0  0  0  0  0  0
   -3.9583    5.1814    0.0000 C   0  0  0  0  0  0  0  0  0  0  0  0
   -4.4218    3.7548    0.0000 C   0  0  0  0  0  0  0  0  0  0  0  0
   -0.7500    1.2990    0.0000 C   0  0  0  0  0  0  0  0  0  0  0  0
    0.7500    1.2990    0.0000 C   0  0  0  0  0  0  0  0  0  0  0  0
  1  2  1  0
  2  3  2  0
  3  4  1  0
  4  5  2  0
  5  6  1  0
  6  7  2  0
  7  8  1  0
  8  9  2  0
  9 10  1  0
 10 11  1  0
 11 12  2  0
 12 13  1  0
 13 14  2  0
 14 15  1  0
 15 16  2  0
 16 17  1  0
 17 18  2  0
 18 19  1  0
 19 20  1  0
 20 21  2  0
 21 22  1  0
 22 23  2  0
 23 24  1  0
 24 25  2  0
 14 26  1  0
 26 27  1  0
  5 28  1  0
 28 29  2  0
 29  2  1  0
 10  6  1  0
 27 11  1  0
 19 15  1  0
 25 20  1  0
M  END
>  <Title>  (1037) 
idABNWgen7

$$$$

     RDKit          2D

 14 15  0  0  0  0  0  0  0  0999 V2000
    3.0000    0.0000    0.0000 C   0  0  0  0  0  0  0  0  0  0  0  0
    1.5000    0.0000    0.0000 C   0  0  0  0  0  0  0  0  0  0  0  0
    0.7500   -1.2990    0.0000 C   0  0  0  0  0  0  0  0  0  0  0  0
   -0.7500   -1.2990    0.0000 C   0  0  0  0  0  0  0  0  0  0  0  0
   -1.5000    0.0000    0.0000 C   0  0  0  0  0  0  0  0  0  0  0  0
   -2.9832   -0.2236    0.0000 C   0  0  0  0  0  0  0  0  0  0  0  0
   -4.0828    0.7967    0.0000 C   0  0  0  0  0  0  0  0  0  0  0  0
   -3.9707    2.2925    0.0000 C   0  0  0  0  0  0  0  0  0  0  0  0
   -2.7314    3.1375    0.0000 C   0  0  0  0  0  0  0  0  0  0  0  0
   -2.9549    4.6207    0.0000 C   0  0  0  0  0  0  0  0  0  0  0  0
   -1.2980    2.6953    0.0000 C   0  0  0  0  0  0  0  0  0  0  0  0
   -0.2778    3.7949    0.0000 O   0  0  0  0  0  0  0  0  0  0  0  0
   -0.7500    1.2990    0.0000 N   0  0  0  0  0  0  0  0  0  0  0  0
    0.7500    1.2990    0.0000 C   0  0  0  0  0  0  0  0  0  0  0  0
  1  2  1  0
  2  3  2  0
  3  4  1  0
  4  5  2  0
  5  6  1  0
  6  7  2  0
  7  8  1  0
  8  9  2  0
  9 10  1  0
  9 11  1  0
 11 12  2  0
 11 13  1  0
 13 14  1  0
 14  2  1  0
 13  5  1  0
M  END
>  <Title>  (1038) 
idABNXgen7

$$$$

     RDKit          2D

 19 20  0  0  0  0  0  0  0  0999 V2000
    8.8347    5.7174    0.0000 C   0  0  0  0  0  0  0  0  0  0  0  0
    7.6856    4.7532    0.0000 C   0  0  0  0  0  0  0  0  0  0  0  0
    7.9461    3.2760    0.0000 C   0  0  0  0  0  0  0  0  0  0  0  0
    6.7970    2.3118    0.0000 C   0  0  0  0  0  0  0  0  0  0  0  0
    5.3875    2.8249    0.0000 C   0  0  0  0  0  0  0  0  0  0  0  0
    4.2384    1.8607    0.0000 N   0  0  0  0  0  0  0  0  0  0  0  0
    2.8289    2.3737    0.0000 C   0  0  0  0  0  0  0  0  0  0  0  0
    2.5684    3.8509    0.0000 O   0  0  0  0  0  0  0  0  0  0  0  0
    1.6798    1.4095    0.0000 C   0  0  0  0  0  0  0  0  0  0  0  0
    2.1929    0.0000    0.0000 C   0  0  0  0  0  0  0  0  0  0  0  0
    1.6798   -1.4095    0.0000 C   0  0  0  0  0  0  0  0  0  0  0  0
    0.3808   -2.1595    0.0000 C   0  0  0  0  0  0  0  0  0  0  0  0
   -1.0964   -1.8991    0.0000 C   0  0  0  0  0  0  0  0  0  0  0  0
   -2.0606   -0.7500    0.0000 C   0  0  0  0  0  0  0  0  0  0  0  0
   -2.0606    0.7500    0.0000 C   0  0  0  0  0  0  0  0  0  0  0  0
   -1.0964    1.8991    0.0000 C   0  0  0  0  0  0  0  0  0  0  0  0
    0.3808    2.1595    0.0000 C   0  0  0  0  0  0  0  0  0  0  0  0
    5.1270    4.3021    0.0000 C   0  0  0  0  0  0  0  0  0  0  0  0
    6.2761    5.2663    0.0000 C   0  0  0  0  0  0  0  0  0  0  0  0
  1  2  1  0
  2  3  2  0
  3  4  1  0
  4  5  2  0
  5  6  1  0
  6  7  1  0
  7  8  2  0
  7  9  1  0
  9 10  1  0
 10 11  1  0
 11 12  1  0
 12 13  1  0
 13 14  1  0
 14 15  1  0
 15 16  1  0
 16 17  1  0
  5 18  1  0
 18 19  2  0
 19  2  1  0
 17  9  1  0
M  END
>  <Title>  (1039) 
idABNYgen7

$$$$

     RDKit          2D

 10 10  0  0  0  0  0  0  0  0999 V2000
    3.7500   -1.2990    0.0000 C   0  0  0  0  0  0  0  0  0  0  0  0
    3.0000    0.0000    0.0000 O   0  0  0  0  0  0  0  0  0  0  0  0
    1.5000    0.0000    0.0000 C   0  0  0  0  0  0  0  0  0  0  0  0
    0.7500   -1.2990    0.0000 C   0  0  0  0  0  0  0  0  0  0  0  0
   -0.7500   -1.2990    0.0000 C   0  0  0  0  0  0  0  0  0  0  0  0
   -1.5000    0.0000    0.0000 C   0  0  0  0  0  0  0  0  0  0  0  0
   -3.0000    0.0000    0.0000 C   0  0  0  0  0  0  0  0  0  0  0  0
   -3.7500    1.2990    0.0000 O   0  0  0  0  0  0  0  0  0  0  0  0
   -0.7500    1.2990    0.0000 N   0  0  0  0  0  0  0  0  0  0  0  0
    0.7500    1.2990    0.0000 N   0  0  0  0  0  0  0  0  0  0  0  0
  1  2  1  0
  2  3  1  0
  3  4  2  0
  4  5  1  0
  5  6  2  0
  6  7  1  0
  7  8  1  0
  6  9  1  0
  9 10  2  0
 10  3  1  0
M  END
>  <Title>  (1040) 
idABNZgen7

$$$$

     RDKit          2D

 24 24  0  0  0  0  0  0  0  0999 V2000
    7.5200   -1.2990    0.0000 C   0  0  0  0  0  0  0  0  0  0  0  0
    6.7700    0.0000    0.0000 O   0  0  0  0  0  0  0  0  0  0  0  0
    5.2700    0.0000    0.0000 C   0  0  0  0  0  0  0  0  0  0  0  0
    5.0565   -1.4847    0.0000 C   0  0  0  0  0  0  0  0  0  0  0  0
    4.4334   -2.8492    0.0000 C   0  0  0  0  0  0  0  0  0  0  0  0
    3.4511   -3.9828    0.0000 C   0  0  0  0  0  0  0  0  0  0  0  0
    2.1892   -4.7938    0.0000 C   0  0  0  0  0  0  0  0  0  0  0  0
    0.7500   -5.2164    0.0000 C   0  0  0  0  0  0  0  0  0  0  0  0
   -0.7500   -5.2164    0.0000 C   0  0  0  0  0  0  0  0  0  0  0  0
   -2.1892   -4.7938    0.0000 C   0  0  0  0  0  0  0  0  0  0  0  0
   -3.4511   -3.9828    0.0000 C   0  0  0  0  0  0  0  0  0  0  0  0
   -4.4334   -2.8492    0.0000 C   0  0  0  0  0  0  0  0  0  0  0  0
   -5.0565   -1.4847    0.0000 C   0  0  0  0  0  0  0  0  0  0  0  0
   -5.2700    0.0000    0.0000 C   0  0  0  0  0  0  0  0  0  0  0  0
   -5.0565    1.4847    0.0000 C   0  0  0  0  0  0  0  0  0  0  0  0
   -4.4334    2.8492    0.0000 C   0  0  0  0  0  0  0  0  0  0  0  0
   -3.4511    3.9828    0.0000 C   0  0  0  0  0  0  0  0  0  0  0  0
   -2.1892    4.7938    0.0000 C   0  0  0  0  0  0  0  0  0  0  0  0
   -0.7500    5.2164    0.0000 C   0  0  0  0  0  0  0  0  0  0  0  0
    0.7500    5.2164    0.0000 C   0  0  0  0  0  0  0  0  0  0  0  0
    2.1892    4.7938    0.0000 C   0  0  0  0  0  0  0  0  0  0  0  0
    3.4511    3.9828    0.0000 C   0  0  0  0  0  0  0  0  0  0  0  0
    4.4334    2.8492    0.0000 C   0  0  0  0  0  0  0  0  0  0  0  0
    5.0565    1.4847    0.0000 C   0  0  0  0  0  0  0  0  0  0  0  0
  1  2  1  0
  2  3  1  0
  3  4  2  0
  4  5  1  0
  5  6  2  0
  6  7  1  0
  7  8  2  0
  8  9  1  0
  9 10  2  0
 10 11  1  0
 11 12  2  0
 12 13  1  0
 13 14  2  0
 14 15  1  0
 15 16  2  0
 16 17  1  0
 17 18  2  0
 18 19  1  0
 19 20  2  0
 20 21  1  0
 21 22  2  0
 22 23  1  0
 23 24  2  0
 24  3  1  0
M  END
>  <Title>  (1041) 
idABOAgen7

$$$$

     RDKit          2D

 31 31  0  0  0  0  0  0  0  0999 V2000
    8.7103   -1.2990    0.0000 C   0  0  0  0  0  0  0  0  0  0  0  0
    7.9603    0.0000    0.0000 C   0  0  0  0  0  0  0  0  0  0  0  0
    6.4603    0.0000    0.0000 C   0  0  0  0  0  0  0  0  0  0  0  0
    6.2862    1.4899    0.0000 N   0  0  0  0  0  0  0  0  0  0  0  0
    5.7732    2.8994    0.0000 C   0  0  0  0  0  0  0  0  0  0  0  0
    7.1136    3.5726    0.0000 O   0  0  0  0  0  0  0  0  0  0  0  0
    4.9489    4.1526    0.0000 C   0  0  0  0  0  0  0  0  0  0  0  0
    6.0980    5.1168    0.0000 C   0  0  0  0  0  0  0  0  0  0  0  0
    3.8578    5.1820    0.0000 C   0  0  0  0  0  0  0  0  0  0  0  0
    2.5588    5.9320    0.0000 C   0  0  0  0  0  0  0  0  0  0  0  0
    1.1218    6.3622    0.0000 C   0  0  0  0  0  0  0  0  0  0  0  0
   -0.3756    6.4494    0.0000 C   0  0  0  0  0  0  0  0  0  0  0  0
   -1.8528    6.1889    0.0000 C   0  0  0  0  0  0  0  0  0  0  0  0
   -3.2302    5.5948    0.0000 C   0  0  0  0  0  0  0  0  0  0  0  0
   -4.4334    4.6991    0.0000 C   0  0  0  0  0  0  0  0  0  0  0  0
   -5.3975    3.5500    0.0000 C   0  0  0  0  0  0  0  0  0  0  0  0
   -6.0707    2.2096    0.0000 C   0  0  0  0  0  0  0  0  0  0  0  0
   -6.4167    0.7500    0.0000 C   0  0  0  0  0  0  0  0  0  0  0  0
   -6.4167   -0.7500    0.0000 C   0  0  0  0  0  0  0  0  0  0  0  0
   -6.0707   -2.2096    0.0000 C   0  0  0  0  0  0  0  0  0  0  0  0
   -5.3975   -3.5500    0.0000 C   0  0  0  0  0  0  0  0  0  0  0  0
   -4.4334   -4.6991    0.0000 C   0  0  0  0  0  0  0  0  0  0  0  0
   -3.2302   -5.5948    0.0000 C   0  0  0  0  0  0  0  0  0  0  0  0
   -1.8528   -6.1889    0.0000 C   0  0  0  0  0  0  0  0  0  0  0  0
   -0.3756   -6.4494    0.0000 C   0  0  0  0  0  0  0  0  0  0  0  0
    1.1218   -6.3622    0.0000 C   0  0  0  0  0  0  0  0  0  0  0  0
    2.5588   -5.9320    0.0000 C   0  0  0  0  0  0  0  0  0  0  0  0
    3.8578   -5.1820    0.0000 C   0  0  0  0  0  0  0  0  0  0  0  0
    4.9489   -4.1526    0.0000 C   0  0  0  0  0  0  0  0  0  0  0  0
    5.7732   -2.8994    0.0000 C   0  0  0  0  0  0  0  0  0  0  0  0
    6.2862   -1.4899    0.0000 O   0  0  0  0  0  0  0  0  0  0  0  0
  1  2  1  0
  2  3  1  0
  3  4  1  0
  4  5  1  0
  5  6  2  0
  5  7  1  0
  7  8  1  0
  7  9  2  0
  9 10  1  0
 10 11  2  0
 11 12  1  0
 12 13  2  0
 13 14  1  0
 14 15  2  0
 15 16  1  0
 16 17  2  0
 17 18  1  0
 18 19  2  0
 19 20  1  0
 20 21  2  0
 21 22  1  0
 22 23  2  0
 23 24  1  0
 24 25  2  0
 25 26  1  0
 26 27  2  0
 27 28  1  0
 28 29  2  0
 29 30  1  0
 30 31  1  0
 31  3  1  0
M  END
>  <Title>  (1042) 
idABOBgen7

$$$$

     RDKit          2D

  2  1  0  0  0  0  0  0  0  0999 V2000
    0.0000    0.0000    0.0000 C   0  0  0  0  0  0  0  0  0  0  0  0
    1.2990    0.7500    0.0000 C   0  0  0  0  0  0  0  0  0  0  0  0
  1  2  1  0
M  END
>  <Title>  (1043) 
idABOCgen7

$$$$

     RDKit          2D

 65 73  0  0  0  0  0  0  0  0999 V2000
   18.1012    3.5258    0.0000 C   0  0  0  0  0  0  0  0  0  0  0  0
   18.3358    2.0443    0.0000 C   0  0  0  0  0  0  0  0  0  0  0  0
   19.7362    1.5068    0.0000 C   0  0  0  0  0  0  0  0  0  0  0  0
   17.1701    1.1003    0.0000 O   0  0  0  0  0  0  0  0  0  0  0  0
   17.4048   -0.3812    0.0000 C   0  0  0  0  0  0  0  0  0  0  0  0
   18.8051   -0.9187    0.0000 C   0  0  0  0  0  0  0  0  0  0  0  0
   19.0398   -2.4003    0.0000 C   0  0  0  0  0  0  0  0  0  0  0  0
   17.8741   -3.3443    0.0000 C   0  0  0  0  0  0  0  0  0  0  0  0
   18.1087   -4.8258    0.0000 N   0  0  0  0  0  0  0  0  0  0  0  0
   19.4452   -5.5068    0.0000 N   0  0  0  0  0  0  0  0  0  0  0  0
   19.2106   -6.9883    0.0000 N   0  0  0  0  0  0  0  0  0  0  0  0
   17.7290   -7.2230    0.0000 N   0  0  0  0  0  0  0  0  0  0  0  0
   17.0480   -5.8865    0.0000 C   0  0  0  0  0  0  0  0  0  0  0  0
   15.5665   -5.6518    0.0000 C   0  0  0  0  0  0  0  0  0  0  0  0
   15.0290   -4.2514    0.0000 C   0  0  0  0  0  0  0  0  0  0  0  0
   13.5474   -4.0168    0.0000 C   0  0  0  0  0  0  0  0  0  0  0  0
   12.6034   -5.1825    0.0000 C   0  0  0  0  0  0  0  0  0  0  0  0
   11.1219   -4.9478    0.0000 C   0  0  0  0  0  0  0  0  0  0  0  0
   10.1779   -6.1136    0.0000 O   0  0  0  0  0  0  0  0  0  0  0  0
   10.5844   -3.5475    0.0000 N   0  0  0  0  0  0  0  0  0  0  0  0
    9.1028   -3.3128    0.0000 C   0  0  0  0  0  0  0  0  0  0  0  0
    8.0422   -4.3735    0.0000 N   0  0  0  0  0  0  0  0  0  0  0  0
    6.7057   -3.6925    0.0000 N   0  0  0  0  0  0  0  0  0  0  0  0
    6.9403   -2.2110    0.0000 N   0  0  0  0  0  0  0  0  0  0  0  0
    8.4218   -1.9763    0.0000 N   0  0  0  0  0  0  0  0  0  0  0  0
    9.1028   -0.6398    0.0000 C   0  0  0  0  0  0  0  0  0  0  0  0
   10.6008   -0.5613    0.0000 C   0  0  0  0  0  0  0  0  0  0  0  0
   11.2818    0.7752    0.0000 C   0  0  0  0  0  0  0  0  0  0  0  0
   10.4648    2.0332    0.0000 C   0  0  0  0  0  0  0  0  0  0  0  0
   11.1458    3.3697    0.0000 C   0  0  0  0  0  0  0  0  0  0  0  0
   12.6437    3.4482    0.0000 C   0  0  0  0  0  0  0  0  0  0  0  0
   13.3247    4.7847    0.0000 C   0  0  0  0  0  0  0  0  0  0  0  0
   12.5078    6.0427    0.0000 C   0  0  0  0  0  0  0  0  0  0  0  0
   11.0098    5.9642    0.0000 C   0  0  0  0  0  0  0  0  0  0  0  0
   10.3288    4.6277    0.0000 C   0  0  0  0  0  0  0  0  0  0  0  0
    8.9669    1.9547    0.0000 C   0  0  0  0  0  0  0  0  0  0  0  0
    8.2859    0.6182    0.0000 C   0  0  0  0  0  0  0  0  0  0  0  0
    6.7879    0.5397    0.0000 C   0  0  0  0  0  0  0  0  0  0  0  0
    5.9710    1.7977    0.0000 O   0  0  0  0  0  0  0  0  0  0  0  0
    6.1069   -0.7968    0.0000 N   0  0  0  0  0  0  0  0  0  0  0  0
    4.6090   -0.8753    0.0000 C   0  0  0  0  0  0  0  0  0  0  0  0
    3.7920    0.3827    0.0000 O   0  0  0  0  0  0  0  0  0  0  0  0
    3.9280   -2.2118    0.0000 C   0  0  0  0  0  0  0  0  0  0  0  0
    4.6090   -3.5483    0.0000 N   0  0  0  0  0  0  0  0  0  0  0  0
    3.5483   -4.6090    0.0000 N   0  0  0  0  0  0  0  0  0  0  0  0
    2.2118   -3.9280    0.0000 N   0  0  0  0  0  0  0  0  0  0  0  0
    2.4465   -2.4465    0.0000 N   0  0  0  0  0  0  0  0  0  0  0  0
    1.3858   -1.3858    0.0000 C   0  0  0  0  0  0  0  0  0  0  0  0
    1.9598    0.0000    0.0000 C   0  0  0  0  0  0  0  0  0  0  0  0
    1.3858    1.3858    0.0000 C   0  0  0  0  0  0  0  0  0  0  0  0
    0.0000    1.9598    0.0000 C   0  0  0  0  0  0  0  0  0  0  0  0
    0.0000    3.4598    0.0000 C   0  0  0  0  0  0  0  0  0  0  0  0
    1.2990    4.2098    0.0000 C   0  0  0  0  0  0  0  0  0  0  0  0
    1.2990    5.7098    0.0000 C   0  0  0  0  0  0  0  0  0  0  0  0
    0.0000    6.4598    0.0000 C   0  0  0  0  0  0  0  0  0  0  0  0
   -1.2990    5.7098    0.0000 C   0  0  0  0  0  0  0  0  0  0  0  0
   -1.2990    4.2098    0.0000 C   0  0  0  0  0  0  0  0  0  0  0  0
   -1.3858    1.3858    0.0000 C   0  0  0  0  0  0  0  0  0  0  0  0
   -1.9598    0.0000    0.0000 C   0  0  0  0  0  0  0  0  0  0  0  0
   -1.3858   -1.3858    0.0000 C   0  0  0  0  0  0  0  0  0  0  0  0
   -0.0000   -1.9598    0.0000 C   0  0  0  0  0  0  0  0  0  0  0  0
   13.1410   -6.5829    0.0000 C   0  0  0  0  0  0  0  0  0  0  0  0
   14.6225   -6.8175    0.0000 C   0  0  0  0  0  0  0  0  0  0  0  0
   16.4737   -2.8067    0.0000 C   0  0  0  0  0  0  0  0  0  0  0  0
   16.2390   -1.3252    0.0000 C   0  0  0  0  0  0  0  0  0  0  0  0
  1  2  1  0
  2  3  1  0
  2  4  1  0
  4  5  1  0
  5  6  2  0
  6  7  1  0
  7  8  2  0
  8  9  1  0
  9 10  1  0
 10 11  2  0
 11 12  1  0
 12 13  2  0
 13 14  1  0
 14 15  2  0
 15 16  1  0
 16 17  2  0
 17 18  1  0
 18 19  2  0
 18 20  1  0
 20 21  1  0
 21 22  2  0
 22 23  1  0
 23 24  2  0
 24 25  1  0
 25 26  1  0
 26 27  2  0
 27 28  1  0
 28 29  2  0
 29 30  1  0
 30 31  2  0
 31 32  1  0
 32 33  2  0
 33 34  1  0
 34 35  2  0
 29 36  1  0
 36 37  2  0
 37 38  1  0
 38 39  2  0
 38 40  1  0
 40 41  1  0
 41 42  2  0
 41 43  1  0
 43 44  2  0
 44 45  1  0
 45 46  2  0
 46 47  1  0
 47 48  1  0
 48 49  2  0
 49 50  1  0
 50 51  2  0
 51 52  1  0
 52 53  2  0
 53 54  1  0
 54 55  2  0
 55 56  1  0
 56 57  2  0
 51 58  1  0
 58 59  2  0
 59 60  1  0
 60 61  2  0
 17 62  1  0
 62 63  2  0
  8 64  1  0
 64 65  2  0
 65  5  1  0
 13  9  1  0
 63 14  1  0
 25 21  1  0
 37 26  1  0
 47 43  1  0
 61 48  1  0
 35 30  1  0
 57 52  1  0
M  END
>  <Title>  (1044) 
idABODgen7

$$$$

     RDKit          2D

 29 32  0  0  0  0  0  0  0  0999 V2000
    3.0000    0.0000    0.0000 C   0  0  0  0  0  0  0  0  0  0  0  0
    1.5000    0.0000    0.0000 C   0  0  0  0  0  0  0  0  0  0  0  0
    0.7500   -1.2990    0.0000 C   0  0  0  0  0  0  0  0  0  0  0  0
   -0.7500   -1.2990    0.0000 C   0  0  0  0  0  0  0  0  0  0  0  0
   -1.5000    0.0000    0.0000 C   0  0  0  0  0  0  0  0  0  0  0  0
   -3.0000    0.0000    0.0000 C   0  0  0  0  0  0  0  0  0  0  0  0
   -3.8817   -1.2135    0.0000 N   0  0  0  0  0  0  0  0  0  0  0  0
   -5.3083   -0.7500    0.0000 N   0  0  0  0  0  0  0  0  0  0  0  0
   -5.3083    0.7500    0.0000 N   0  0  0  0  0  0  0  0  0  0  0  0
   -3.8817    1.2135    0.0000 N   0  0  0  0  0  0  0  0  0  0  0  0
   -3.4182    2.6401    0.0000 C   0  0  0  0  0  0  0  0  0  0  0  0
   -4.2998    3.8536    0.0000 C   0  0  0  0  0  0  0  0  0  0  0  0
   -3.4182    5.0672    0.0000 C   0  0  0  0  0  0  0  0  0  0  0  0
   -1.9916    4.6036    0.0000 C   0  0  0  0  0  0  0  0  0  0  0  0
   -0.7780    5.4853    0.0000 C   0  0  0  0  0  0  0  0  0  0  0  0
   -0.7780    6.9853    0.0000 C   0  0  0  0  0  0  0  0  0  0  0  0
    0.6485    7.4488    0.0000 C   0  0  0  0  0  0  0  0  0  0  0  0
    1.5302    6.2353    0.0000 C   0  0  0  0  0  0  0  0  0  0  0  0
    3.0302    6.2353    0.0000 C   0  0  0  0  0  0  0  0  0  0  0  0
    3.7802    7.5344    0.0000 O   0  0  0  0  0  0  0  0  0  0  0  0
    3.7802    4.9363    0.0000 N   0  0  0  0  0  0  0  0  0  0  0  0
    5.2802    4.9363    0.0000 O   0  0  0  0  0  0  0  0  0  0  0  0
    0.6485    5.0218    0.0000 C   0  0  0  0  0  0  0  0  0  0  0  0
    1.1121    3.5952    0.0000 O   0  0  0  0  0  0  0  0  0  0  0  0
   -1.9916    3.1036    0.0000 C   0  0  0  0  0  0  0  0  0  0  0  0
   -0.7780    2.2220    0.0000 O   0  0  0  0  0  0  0  0  0  0  0  0
   -0.7500    1.2990    0.0000 N   0  0  0  0  0  0  0  0  0  0  0  0
    0.7500    1.2990    0.0000 C   0  0  0  0  0  0  0  0  0  0  0  0
    1.5000    2.5981    0.0000 O   0  0  0  0  0  0  0  0  0  0  0  0
  1  2  1  0
  2  3  2  0
  3  4  1  0
  4  5  2  0
  5  6  1  0
  6  7  2  0
  7  8  1  0
  8  9  2  0
  9 10  1  0
 10 11  1  0
 11 12  2  0
 12 13  1  0
 13 14  2  0
 14 15  1  0
 15 16  2  0
 16 17  1  0
 17 18  2  0
 18 19  1  0
 19 20  2  0
 19 21  1  0
 21 22  1  0
 18 23  1  0
 23 24  2  0
 14 25  1  0
 25 26  2  0
  5 27  1  0
 27 28  1  0
 28 29  2  0
 28  2  1  0
 10  6  1  0
 25 11  1  0
 23 15  1  0
M  END
>  <Title>  (1045) 
idABOEgen7

$$$$

     RDKit          2D

 55 62  0  0  0  0  0  0  0  0999 V2000
    3.0000    0.0000    0.0000 C   0  0  0  0  0  0  0  0  0  0  0  0
    1.5000    0.0000    0.0000 C   0  0  0  0  0  0  0  0  0  0  0  0
    0.7500   -1.2990    0.0000 C   0  0  0  0  0  0  0  0  0  0  0  0
   -0.7500   -1.2990    0.0000 C   0  0  0  0  0  0  0  0  0  0  0  0
   -1.5000    0.0000    0.0000 C   0  0  0  0  0  0  0  0  0  0  0  0
   -3.0000    0.0000    0.0000 C   0  0  0  0  0  0  0  0  0  0  0  0
   -3.8817   -1.2135    0.0000 N   0  0  0  0  0  0  0  0  0  0  0  0
   -5.3083   -0.7500    0.0000 N   0  0  0  0  0  0  0  0  0  0  0  0
   -5.3083    0.7500    0.0000 N   0  0  0  0  0  0  0  0  0  0  0  0
   -3.8817    1.2135    0.0000 N   0  0  0  0  0  0  0  0  0  0  0  0
   -3.4182    2.6401    0.0000 C   0  0  0  0  0  0  0  0  0  0  0  0
   -1.9509    2.9520    0.0000 C   0  0  0  0  0  0  0  0  0  0  0  0
   -1.4874    4.3786    0.0000 C   0  0  0  0  0  0  0  0  0  0  0  0
   -2.4911    5.4933    0.0000 C   0  0  0  0  0  0  0  0  0  0  0  0
   -2.0276    6.9199    0.0000 C   0  0  0  0  0  0  0  0  0  0  0  0
   -3.0313    8.0346    0.0000 O   0  0  0  0  0  0  0  0  0  0  0  0
   -0.5604    7.2317    0.0000 N   0  0  0  0  0  0  0  0  0  0  0  0
   -0.0968    8.6583    0.0000 C   0  0  0  0  0  0  0  0  0  0  0  0
   -0.9785    9.8718    0.0000 N   0  0  0  0  0  0  0  0  0  0  0  0
   -0.0968   11.0854    0.0000 N   0  0  0  0  0  0  0  0  0  0  0  0
    1.3298   10.6218    0.0000 N   0  0  0  0  0  0  0  0  0  0  0  0
    1.3298    9.1218    0.0000 N   0  0  0  0  0  0  0  0  0  0  0  0
    2.5433    8.2402    0.0000 C   0  0  0  0  0  0  0  0  0  0  0  0
    2.3865    6.7484    0.0000 C   0  0  0  0  0  0  0  0  0  0  0  0
    3.6000    5.8667    0.0000 C   0  0  0  0  0  0  0  0  0  0  0  0
    4.9703    6.4768    0.0000 C   0  0  0  0  0  0  0  0  0  0  0  0
    5.1271    7.9686    0.0000 C   0  0  0  0  0  0  0  0  0  0  0  0
    3.9136    8.8503    0.0000 C   0  0  0  0  0  0  0  0  0  0  0  0
   -3.9583    5.1814    0.0000 C   0  0  0  0  0  0  0  0  0  0  0  0
   -4.4218    3.7548    0.0000 C   0  0  0  0  0  0  0  0  0  0  0  0
   -5.8891    3.4430    0.0000 C   0  0  0  0  0  0  0  0  0  0  0  0
   -6.3526    2.0164    0.0000 C   0  0  0  0  0  0  0  0  0  0  0  0
   -7.8198    1.7045    0.0000 C   0  0  0  0  0  0  0  0  0  0  0  0
   -8.8235    2.8192    0.0000 C   0  0  0  0  0  0  0  0  0  0  0  0
  -10.2907    2.5074    0.0000 C   0  0  0  0  0  0  0  0  0  0  0  0
  -10.7543    1.0808    0.0000 C   0  0  0  0  0  0  0  0  0  0  0  0
  -12.2215    0.7689    0.0000 C   0  0  0  0  0  0  0  0  0  0  0  0
  -13.2252    1.8836    0.0000 C   0  0  0  0  0  0  0  0  0  0  0  0
  -12.7617    3.3102    0.0000 N   0  0  0  0  0  0  0  0  0  0  0  0
  -11.2944    3.6221    0.0000 C   0  0  0  0  0  0  0  0  0  0  0  0
   -8.3600    4.2458    0.0000 C   0  0  0  0  0  0  0  0  0  0  0  0
   -6.8928    4.5577    0.0000 C   0  0  0  0  0  0  0  0  0  0  0  0
   -6.4292    5.9843    0.0000 C   0  0  0  0  0  0  0  0  0  0  0  0
   -4.9620    6.2961    0.0000 C   0  0  0  0  0  0  0  0  0  0  0  0
   -4.4985    7.7227    0.0000 C   0  0  0  0  0  0  0  0  0  0  0  0
   -5.5022    8.8374    0.0000 C   0  0  0  0  0  0  0  0  0  0  0  0
   -5.0387   10.2640    0.0000 C   0  0  0  0  0  0  0  0  0  0  0  0
   -6.0424   11.3787    0.0000 O   0  0  0  0  0  0  0  0  0  0  0  0
   -3.5714   10.5759    0.0000 N   0  0  0  0  0  0  0  0  0  0  0  0
   -3.1079   12.0025    0.0000 O   0  0  0  0  0  0  0  0  0  0  0  0
   -6.9694    8.5256    0.0000 C   0  0  0  0  0  0  0  0  0  0  0  0
   -7.9731    9.6403    0.0000 O   0  0  0  0  0  0  0  0  0  0  0  0
   -7.4329    7.0990    0.0000 N   0  0  0  0  0  0  0  0  0  0  0  0
   -0.7500    1.2990    0.0000 N   0  0  0  0  0  0  0  0  0  0  0  0
    0.7500    1.2990    0.0000 N   0  0  0  0  0  0  0  0  0  0  0  0
  1  2  1  0
  2  3  2  0
  3  4  1  0
  4  5  2  0
  5  6  1  0
  6  7  2  0
  7  8  1  0
  8  9  2  0
  9 10  1  0
 10 11  1  0
 11 12  2  0
 12 13  1  0
 13 14  2  0
 14 15  1  0
 15 16  2  0
 15 17  1  0
 17 18  1  0
 18 19  2  0
 19 20  1  0
 20 21  2  0
 21 22  1  0
 22 23  1  0
 23 24  2  0
 24 25  1  0
 25 26  2  0
 26 27  1  0
 27 28  2  0
 14 29  1  0
 29 30  2  0
 30 31  1  0
 31 32  2  0
 32 33  1  0
 33 34  2  0
 34 35  1  0
 35 36  2  0
 36 37  1  0
 37 38  2  0
 38 39  1  0
 39 40  2  0
 34 41  1  0
 41 42  2  0
 42 43  1  0
 43 44  2  0
 44 45  1  0
 45 46  2  0
 46 47  1  0
 47 48  2  0
 47 49  1  0
 49 50  1  0
 46 51  1  0
 51 52  2  0
 51 53  1  0
  5 54  1  0
 54 55  2  0
 55  2  1  0
 10  6  1  0
 30 11  1  0
 42 31  1  0
 53 43  1  0
 22 18  1  0
 28 23  1  0
 40 35  1  0
M  END
>  <Title>  (1046) 
idABOFgen7

$$$$

     RDKit          2D

 38 42  0  0  0  0  0  0  0  0999 V2000
    3.0000    0.0000    0.0000 C   0  0  0  0  0  0  0  0  0  0  0  0
    1.5000    0.0000    0.0000 C   0  0  0  0  0  0  0  0  0  0  0  0
    0.7500   -1.2990    0.0000 C   0  0  0  0  0  0  0  0  0  0  0  0
   -0.7500   -1.2990    0.0000 C   0  0  0  0  0  0  0  0  0  0  0  0
   -1.5000    0.0000    0.0000 C   0  0  0  0  0  0  0  0  0  0  0  0
   -3.0000    0.0000    0.0000 C   0  0  0  0  0  0  0  0  0  0  0  0
   -3.7500   -1.2990    0.0000 O   0  0  0  0  0  0  0  0  0  0  0  0
   -3.7500    1.2990    0.0000 N   0  0  0  0  0  0  0  0  0  0  0  0
   -5.2500    1.2990    0.0000 C   0  0  0  0  0  0  0  0  0  0  0  0
   -6.1317    0.0855    0.0000 N   0  0  0  0  0  0  0  0  0  0  0  0
   -7.5583    0.5490    0.0000 N   0  0  0  0  0  0  0  0  0  0  0  0
   -7.5583    2.0490    0.0000 N   0  0  0  0  0  0  0  0  0  0  0  0
   -6.1317    2.5126    0.0000 N   0  0  0  0  0  0  0  0  0  0  0  0
   -5.6682    3.9391    0.0000 C   0  0  0  0  0  0  0  0  0  0  0  0
   -4.2009    4.2510    0.0000 C   0  0  0  0  0  0  0  0  0  0  0  0
   -3.7374    5.6776    0.0000 C   0  0  0  0  0  0  0  0  0  0  0  0
   -4.7411    6.7923    0.0000 C   0  0  0  0  0  0  0  0  0  0  0  0
   -4.2776    8.2189    0.0000 C   0  0  0  0  0  0  0  0  0  0  0  0
   -2.8104    8.5308    0.0000 C   0  0  0  0  0  0  0  0  0  0  0  0
   -2.3468    9.9574    0.0000 C   0  0  0  0  0  0  0  0  0  0  0  0
   -3.3505   11.0721    0.0000 C   0  0  0  0  0  0  0  0  0  0  0  0
   -4.8177   10.7602    0.0000 C   0  0  0  0  0  0  0  0  0  0  0  0
   -5.2813    9.3336    0.0000 C   0  0  0  0  0  0  0  0  0  0  0  0
   -6.2083    6.4805    0.0000 C   0  0  0  0  0  0  0  0  0  0  0  0
   -6.6718    5.0539    0.0000 C   0  0  0  0  0  0  0  0  0  0  0  0
   -8.1391    4.7420    0.0000 C   0  0  0  0  0  0  0  0  0  0  0  0
   -9.1428    5.8567    0.0000 C   0  0  0  0  0  0  0  0  0  0  0  0
  -10.6100    5.5448    0.0000 C   0  0  0  0  0  0  0  0  0  0  0  0
  -11.0735    4.1183    0.0000 C   0  0  0  0  0  0  0  0  0  0  0  0
  -12.5407    3.8064    0.0000 C   0  0  0  0  0  0  0  0  0  0  0  0
  -13.0043    2.3798    0.0000 O   0  0  0  0  0  0  0  0  0  0  0  0
  -13.5444    4.9211    0.0000 N   0  0  0  0  0  0  0  0  0  0  0  0
  -15.0117    4.6092    0.0000 O   0  0  0  0  0  0  0  0  0  0  0  0
  -10.0698    3.0035    0.0000 C   0  0  0  0  0  0  0  0  0  0  0  0
   -8.6026    3.3154    0.0000 C   0  0  0  0  0  0  0  0  0  0  0  0
   -0.7500    1.2990    0.0000 C   0  0  0  0  0  0  0  0  0  0  0  0
   -1.5000    2.5981    0.0000 O   0  0  0  0  0  0  0  0  0  0  0  0
    0.7500    1.2990    0.0000 N   0  0  0  0  0  0  0  0  0  0  0  0
  1  2  1  0
  2  3  2  0
  3  4  1  0
  4  5  2  0
  5  6  1  0
  6  7  2  0
  6  8  1  0
  8  9  1  0
  9 10  2  0
 10 11  1  0
 11 12  2  0
 12 13  1  0
 13 14  1  0
 14 15  2  0
 15 16  1  0
 16 17  2  0
 17 18  1  0
 18 19  2  0
 19 20  1  0
 20 21  2  0
 21 22  1  0
 22 23  2  0
 17 24  1  0
 24 25  2  0
 25 26  1  0
 26 27  2  0
 27 28  1  0
 28 29  2  0
 29 30  1  0
 30 31  2  0
 30 32  1  0
 32 33  1  0
 29 34  1  0
 34 35  1  0
  5 36  1  0
 36 37  2  0
 36 38  1  0
 38  2  1  0
 13  9  1  0
 25 14  1  0
 35 26  1  0
 23 18  1  0
M  END
>  <Title>  (1047) 
idABOGgen7

$$$$

     RDKit          2D

 33 37  0  0  0  0  0  0  0  0999 V2000
   -5.2500   -6.4952    0.0000 C   0  0  0  0  0  0  0  0  0  0  0  0
   -6.0000   -5.1962    0.0000 O   0  0  0  0  0  0  0  0  0  0  0  0
   -5.2500   -3.8971    0.0000 C   0  0  0  0  0  0  0  0  0  0  0  0
   -3.7500   -3.8971    0.0000 C   0  0  0  0  0  0  0  0  0  0  0  0
   -3.0000   -2.5981    0.0000 C   0  0  0  0  0  0  0  0  0  0  0  0
   -3.7500   -1.2990    0.0000 C   0  0  0  0  0  0  0  0  0  0  0  0
   -3.0000    0.0000    0.0000 C   0  0  0  0  0  0  0  0  0  0  0  0
   -3.7500    1.2990    0.0000 C   0  0  0  0  0  0  0  0  0  0  0  0
   -5.2418    1.4558    0.0000 N   0  0  0  0  0  0  0  0  0  0  0  0
   -5.5537    2.9231    0.0000 N   0  0  0  0  0  0  0  0  0  0  0  0
   -4.2546    3.6731    0.0000 N   0  0  0  0  0  0  0  0  0  0  0  0
   -3.1399    2.6694    0.0000 N   0  0  0  0  0  0  0  0  0  0  0  0
   -1.6727    2.9812    0.0000 C   0  0  0  0  0  0  0  0  0  0  0  0
   -0.6690    1.8665    0.0000 C   0  0  0  0  0  0  0  0  0  0  0  0
    0.7982    2.1784    0.0000 C   0  0  0  0  0  0  0  0  0  0  0  0
    1.2618    3.6050    0.0000 C   0  0  0  0  0  0  0  0  0  0  0  0
    2.7290    3.9168    0.0000 C   0  0  0  0  0  0  0  0  0  0  0  0
    3.3391    5.2871    0.0000 C   0  0  0  0  0  0  0  0  0  0  0  0
    4.8309    5.1304    0.0000 C   0  0  0  0  0  0  0  0  0  0  0  0
    5.1427    3.6631    0.0000 C   0  0  0  0  0  0  0  0  0  0  0  0
    6.5131    3.0530    0.0000 C   0  0  0  0  0  0  0  0  0  0  0  0
    6.6699    1.5612    0.0000 C   0  0  0  0  0  0  0  0  0  0  0  0
    8.0402    0.9511    0.0000 C   0  0  0  0  0  0  0  0  0  0  0  0
    9.2537    1.8328    0.0000 C   0  0  0  0  0  0  0  0  0  0  0  0
    9.0969    3.3246    0.0000 C   0  0  0  0  0  0  0  0  0  0  0  0
    7.7266    3.9347    0.0000 C   0  0  0  0  0  0  0  0  0  0  0  0
    3.8437    2.9131    0.0000 C   0  0  0  0  0  0  0  0  0  0  0  0
    3.6869    1.4213    0.0000 O   0  0  0  0  0  0  0  0  0  0  0  0
    0.2581    4.7197    0.0000 C   0  0  0  0  0  0  0  0  0  0  0  0
    0.7216    6.1463    0.0000 O   0  0  0  0  0  0  0  0  0  0  0  0
   -1.2091    4.4078    0.0000 N   0  0  0  0  0  0  0  0  0  0  0  0
   -5.2500   -1.2990    0.0000 N   0  0  0  0  0  0  0  0  0  0  0  0
   -6.0000   -2.5981    0.0000 N   0  0  0  0  0  0  0  0  0  0  0  0
  1  2  1  0
  2  3  1  0
  3  4  2  0
  4  5  1  0
  5  6  2  0
  6  7  1  0
  7  8  1  0
  8  9  2  0
  9 10  1  0
 10 11  2  0
 11 12  1  0
 12 13  1  0
 13 14  2  0
 14 15  1  0
 15 16  2  0
 16 17  1  0
 17 18  2  0
 18 19  1  0
 19 20  2  0
 20 21  1  0
 21 22  2  0
 22 23  1  0
 23 24  2  0
 24 25  1  0
 25 26  2  0
 20 27  1  0
 27 28  2  0
 16 29  1  0
 29 30  2  0
 29 31  1  0
  6 32  1  0
 32 33  2  0
 33  3  1  0
 12  8  1  0
 31 13  1  0
 27 17  1  0
 26 21  1  0
M  END
>  <Title>  (1048) 
idABOHgen7

$$$$

     RDKit          2D

 27 30  0  0  0  0  0  0  0  0999 V2000
    3.0000    0.0000    0.0000 C   0  0  0  0  0  0  0  0  0  0  0  0
    1.5000    0.0000    0.0000 C   0  0  0  0  0  0  0  0  0  0  0  0
    0.7500   -1.2990    0.0000 C   0  0  0  0  0  0  0  0  0  0  0  0
   -0.7500   -1.2990    0.0000 C   0  0  0  0  0  0  0  0  0  0  0  0
   -1.5000    0.0000    0.0000 C   0  0  0  0  0  0  0  0  0  0  0  0
   -3.0000    0.0000    0.0000 C   0  0  0  0  0  0  0  0  0  0  0  0
   -3.7500   -1.2990    0.0000 O   0  0  0  0  0  0  0  0  0  0  0  0
   -3.7500    1.2990    0.0000 N   0  0  0  0  0  0  0  0  0  0  0  0
   -5.2500    1.2990    0.0000 C   0  0  0  0  0  0  0  0  0  0  0  0
   -6.1317    0.0855    0.0000 N   0  0  0  0  0  0  0  0  0  0  0  0
   -7.5583    0.5490    0.0000 N   0  0  0  0  0  0  0  0  0  0  0  0
   -7.5583    2.0490    0.0000 N   0  0  0  0  0  0  0  0  0  0  0  0
   -6.1317    2.5126    0.0000 N   0  0  0  0  0  0  0  0  0  0  0  0
   -5.6682    3.9391    0.0000 C   0  0  0  0  0  0  0  0  0  0  0  0
   -6.5498    5.1527    0.0000 C   0  0  0  0  0  0  0  0  0  0  0  0
   -5.6682    6.3662    0.0000 C   0  0  0  0  0  0  0  0  0  0  0  0
   -4.2416    5.9027    0.0000 C   0  0  0  0  0  0  0  0  0  0  0  0
   -3.0280    6.7844    0.0000 C   0  0  0  0  0  0  0  0  0  0  0  0
   -3.0280    8.2844    0.0000 C   0  0  0  0  0  0  0  0  0  0  0  0
   -1.6015    8.7479    0.0000 C   0  0  0  0  0  0  0  0  0  0  0  0
   -0.7198    7.5344    0.0000 C   0  0  0  0  0  0  0  0  0  0  0  0
    0.7802    7.5344    0.0000 N   0  0  0  0  0  0  0  0  0  0  0  0
   -1.6015    6.3208    0.0000 C   0  0  0  0  0  0  0  0  0  0  0  0
   -1.1379    4.8942    0.0000 O   0  0  0  0  0  0  0  0  0  0  0  0
   -4.2416    4.4027    0.0000 C   0  0  0  0  0  0  0  0  0  0  0  0
   -0.7500    1.2990    0.0000 C   0  0  0  0  0  0  0  0  0  0  0  0
    0.7500    1.2990    0.0000 N   0  0  0  0  0  0  0  0  0  0  0  0
  1  2  1  0
  2  3  2  0
  3  4  1  0
  4  5  2  0
  5  6  1  0
  6  7  2  0
  6  8  1  0
  8  9  1  0
  9 10  2  0
 10 11  1  0
 11 12  2  0
 12 13  1  0
 13 14  1  0
 14 15  2  0
 15 16  1  0
 16 17  2  0
 17 18  1  0
 18 19  2  0
 19 20  1  0
 20 21  2  0
 21 22  1  0
 21 23  1  0
 23 24  2  0
 17 25  1  0
  5 26  1  0
 26 27  1  0
 27  2  1  0
 13  9  1  0
 25 14  1  0
 23 18  1  0
M  END
>  <Title>  (1049) 
idABOIgen7

$$$$

     RDKit          2D

 24 26  0  0  0  0  0  0  0  0999 V2000
   -6.0000   -5.1962    0.0000 C   0  0  0  0  0  0  0  0  0  0  0  0
   -5.2500   -3.8971    0.0000 C   0  0  0  0  0  0  0  0  0  0  0  0
   -6.0000   -2.5981    0.0000 C   0  0  0  0  0  0  0  0  0  0  0  0
   -5.2500   -1.2990    0.0000 C   0  0  0  0  0  0  0  0  0  0  0  0
   -3.7500   -1.2990    0.0000 C   0  0  0  0  0  0  0  0  0  0  0  0
   -3.0000    0.0000    0.0000 C   0  0  0  0  0  0  0  0  0  0  0  0
   -3.7500    1.2990    0.0000 C   0  0  0  0  0  0  0  0  0  0  0  0
   -5.2418    1.4558    0.0000 N   0  0  0  0  0  0  0  0  0  0  0  0
   -5.5537    2.9231    0.0000 N   0  0  0  0  0  0  0  0  0  0  0  0
   -4.2546    3.6731    0.0000 C   0  0  0  0  0  0  0  0  0  0  0  0
   -3.1399    2.6694    0.0000 N   0  0  0  0  0  0  0  0  0  0  0  0
   -1.6727    2.9812    0.0000 C   0  0  0  0  0  0  0  0  0  0  0  0
   -0.6690    1.8665    0.0000 C   0  0  0  0  0  0  0  0  0  0  0  0
    0.7982    2.1784    0.0000 C   0  0  0  0  0  0  0  0  0  0  0  0
    1.2618    3.6050    0.0000 C   0  0  0  0  0  0  0  0  0  0  0  0
    2.7290    3.9168    0.0000 C   0  0  0  0  0  0  0  0  0  0  0  0
    3.7327    2.8021    0.0000 O   0  0  0  0  0  0  0  0  0  0  0  0
    3.1925    5.3434    0.0000 N   0  0  0  0  0  0  0  0  0  0  0  0
    4.6597    5.6553    0.0000 O   0  0  0  0  0  0  0  0  0  0  0  0
    0.2581    4.7197    0.0000 C   0  0  0  0  0  0  0  0  0  0  0  0
   -1.2091    4.4078    0.0000 C   0  0  0  0  0  0  0  0  0  0  0  0
   -3.0000   -2.5981    0.0000 C   0  0  0  0  0  0  0  0  0  0  0  0
   -1.5000   -2.5981    0.0000 O   0  0  0  0  0  0  0  0  0  0  0  0
   -3.7500   -3.8971    0.0000 N   0  0  0  0  0  0  0  0  0  0  0  0
  1  2  1  0
  2  3  2  0
  3  4  1  0
  4  5  2  0
  5  6  1  0
  6  7  1  0
  7  8  2  0
  8  9  1  0
  9 10  2  0
 10 11  1  0
 11 12  1  0
 12 13  2  0
 13 14  1  0
 14 15  2  0
 15 16  1  0
 16 17  2  0
 16 18  1  0
 18 19  1  0
 15 20  1  0
 20 21  1  0
  5 22  1  0
 22 23  2  0
 22 24  1  0
 24  2  1  0
 11  7  1  0
 21 12  1  0
M  END
>  <Title>  (1050) 
idABOJgen7

$$$$

     RDKit          2D

 44 50  0  0  0  0  0  0  0  0999 V2000
    2.8712   -2.1793    0.0000 C   0  0  0  0  0  0  0  0  0  0  0  0
    2.9758   -3.6756    0.0000 C   0  0  0  0  0  0  0  0  0  0  0  0
    4.3240   -4.3332    0.0000 C   0  0  0  0  0  0  0  0  0  0  0  0
    4.4286   -5.8295    0.0000 C   0  0  0  0  0  0  0  0  0  0  0  0
    3.1851   -6.6683    0.0000 C   0  0  0  0  0  0  0  0  0  0  0  0
    3.2897   -8.1647    0.0000 C   0  0  0  0  0  0  0  0  0  0  0  0
    4.5618   -8.9596    0.0000 N   0  0  0  0  0  0  0  0  0  0  0  0
    4.1989  -10.4150    0.0000 N   0  0  0  0  0  0  0  0  0  0  0  0
    2.7025  -10.5196    0.0000 N   0  0  0  0  0  0  0  0  0  0  0  0
    2.1406   -9.1289    0.0000 N   0  0  0  0  0  0  0  0  0  0  0  0
    0.6852   -8.7660    0.0000 C   0  0  0  0  0  0  0  0  0  0  0  0
    0.2717   -7.3241    0.0000 C   0  0  0  0  0  0  0  0  0  0  0  0
   -1.1837   -6.9612    0.0000 C   0  0  0  0  0  0  0  0  0  0  0  0
   -2.2257   -8.0402    0.0000 C   0  0  0  0  0  0  0  0  0  0  0  0
   -3.6811   -7.6773    0.0000 C   0  0  0  0  0  0  0  0  0  0  0  0
   -4.7231   -8.7563    0.0000 O   0  0  0  0  0  0  0  0  0  0  0  0
   -4.0946   -6.2354    0.0000 N   0  0  0  0  0  0  0  0  0  0  0  0
   -5.5500   -5.8725    0.0000 C   0  0  0  0  0  0  0  0  0  0  0  0
   -6.6991   -6.8367    0.0000 N   0  0  0  0  0  0  0  0  0  0  0  0
   -7.9712   -6.0419    0.0000 N   0  0  0  0  0  0  0  0  0  0  0  0
   -7.6083   -4.5864    0.0000 N   0  0  0  0  0  0  0  0  0  0  0  0
   -6.1120   -4.4818    0.0000 N   0  0  0  0  0  0  0  0  0  0  0  0
   -5.3171   -3.2097    0.0000 C   0  0  0  0  0  0  0  0  0  0  0  0
   -3.8499   -3.5216    0.0000 C   0  0  0  0  0  0  0  0  0  0  0  0
   -2.5254   -2.8174    0.0000 C   0  0  0  0  0  0  0  0  0  0  0  0
   -1.9635   -1.4266    0.0000 C   0  0  0  0  0  0  0  0  0  0  0  0
   -0.7500   -2.3083    0.0000 C   0  0  0  0  0  0  0  0  0  0  0  0
    0.7500   -2.3083    0.0000 C   0  0  0  0  0  0  0  0  0  0  0  0
    1.9635   -1.4266    0.0000 C   0  0  0  0  0  0  0  0  0  0  0  0
    2.4271    0.0000    0.0000 C   0  0  0  0  0  0  0  0  0  0  0  0
    1.9635    1.4266    0.0000 C   0  0  0  0  0  0  0  0  0  0  0  0
    0.7500    2.3083    0.0000 C   0  0  0  0  0  0  0  0  0  0  0  0
   -0.7500    2.3083    0.0000 C   0  0  0  0  0  0  0  0  0  0  0  0
   -1.9635    1.4266    0.0000 C   0  0  0  0  0  0  0  0  0  0  0  0
   -2.4271    0.0000    0.0000 C   0  0  0  0  0  0  0  0  0  0  0  0
   -3.6991    0.7949    0.0000 N   0  0  0  0  0  0  0  0  0  0  0  0
   -5.1845    0.5861    0.0000 N   0  0  0  0  0  0  0  0  0  0  0  0
   -6.1882   -0.5286    0.0000 N   0  0  0  0  0  0  0  0  0  0  0  0
   -6.2406   -2.0277    0.0000 N   0  0  0  0  0  0  0  0  0  0  0  0
   -1.8122   -9.4821    0.0000 C   0  0  0  0  0  0  0  0  0  0  0  0
   -2.8542  -10.5611    0.0000 O   0  0  0  0  0  0  0  0  0  0  0  0
   -0.3568   -9.8450    0.0000 N   0  0  0  0  0  0  0  0  0  0  0  0
    1.8369   -6.0108    0.0000 N   0  0  0  0  0  0  0  0  0  0  0  0
    1.7322   -4.5144    0.0000 C   0  0  0  0  0  0  0  0  0  0  0  0
  1  2  1  0
  2  3  2  0
  3  4  1  0
  4  5  2  0
  5  6  1  0
  6  7  2  0
  7  8  1  0
  8  9  2  0
  9 10  1  0
 10 11  1  0
 11 12  2  0
 12 13  1  0
 13 14  2  0
 14 15  1  0
 15 16  2  0
 15 17  1  0
 17 18  1  0
 18 19  2  0
 19 20  1  0
 20 21  2  0
 21 22  1  0
 22 23  1  0
 23 24  2  0
 24 25  1  0
 25 26  2  0
 26 27  1  0
 27 28  2  0
 28 29  1  0
 29 30  2  0
 30 31  1  0
 31 32  2  0
 32 33  1  0
 33 34  2  0
 34 35  1  0
 35 36  2  0
 36 37  1  0
 37 38  2  0
 38 39  1  0
 14 40  1  0
 40 41  2  0
 40 42  1  0
  5 43  1  0
 43 44  1  0
 44  2  1  0
 10  6  1  0
 42 11  1  0
 22 18  1  0
 39 23  1  0
 35 26  1  0
 39 29  1  0
M  END
>  <Title>  (1051) 
idABOKgen7

$$$$

     RDKit          2D

 19 21  0  0  0  0  0  0  0  0999 V2000
    1.9697    2.1571    0.0000 C   0  0  0  0  0  0  0  0  0  0  0  0
    0.4968    2.4410    0.0000 C   0  0  0  0  0  0  0  0  0  0  0  0
   -0.1905    1.1077    0.0000 C   0  0  0  0  0  0  0  0  0  0  0  0
   -1.4895    0.3577    0.0000 C   0  0  0  0  0  0  0  0  0  0  0  0
   -2.9878    0.4291    0.0000 C   0  0  0  0  0  0  0  0  0  0  0  0
   -3.1304    1.9223    0.0000 C   0  0  0  0  0  0  0  0  0  0  0  0
   -2.4431    3.2555    0.0000 C   0  0  0  0  0  0  0  0  0  0  0  0
   -1.1441    4.0055    0.0000 C   0  0  0  0  0  0  0  0  0  0  0  0
    0.3542    3.9342    0.0000 C   0  0  0  0  0  0  0  0  0  0  0  0
    1.5761    3.0641    0.0000 C   0  0  0  0  0  0  0  0  0  0  0  0
    1.6798    1.4095    0.0000 C   0  0  0  0  0  0  0  0  0  0  0  0
    2.1929    0.0000    0.0000 C   0  0  0  0  0  0  0  0  0  0  0  0
    1.6798   -1.4095    0.0000 C   0  0  0  0  0  0  0  0  0  0  0  0
    0.3808   -2.1595    0.0000 C   0  0  0  0  0  0  0  0  0  0  0  0
   -1.0964   -1.8991    0.0000 C   0  0  0  0  0  0  0  0  0  0  0  0
   -2.0606   -0.7500    0.0000 C   0  0  0  0  0  0  0  0  0  0  0  0
   -1.3790    0.2290    0.0000 N   0  0  0  0  0  0  0  0  0  0  0  0
   -0.0464    0.0804    0.0000 N   0  0  0  0  0  0  0  0  0  0  0  0
    0.4912    1.3088    0.0000 N   0  0  0  0  0  0  0  0  0  0  0  0
  1  2  1  0
  2  3  2  0
  3  4  1  0
  4  5  2  0
  5  6  1  0
  6  7  2  0
  7  8  1  0
  8  9  2  0
  9 10  1  0
 10 11  2  0
 11 12  1  0
 12 13  2  0
 13 14  1  0
 14 15  2  0
 15 16  1  0
 16 17  2  0
 17 18  1  0
 18 19  2  0
  9  2  1  0
 19 11  1  0
 16  5  1  0
M  END
>  <Title>  (1052) 
idABOLgen7

$$$$

     RDKit          2D

 20 22  0  0  0  0  0  0  0  0999 V2000
    3.0000    0.0000    0.0000 C   0  0  0  0  0  0  0  0  0  0  0  0
    1.5000    0.0000    0.0000 C   0  0  0  0  0  0  0  0  0  0  0  0
    0.7500   -1.2990    0.0000 C   0  0  0  0  0  0  0  0  0  0  0  0
   -0.7500   -1.2990    0.0000 C   0  0  0  0  0  0  0  0  0  0  0  0
   -1.5000    0.0000    0.0000 C   0  0  0  0  0  0  0  0  0  0  0  0
   -3.0000    0.0000    0.0000 N   0  0  0  0  0  0  0  0  0  0  0  0
   -3.7500    1.2990    0.0000 N   0  0  0  0  0  0  0  0  0  0  0  0
   -5.2500    1.2990    0.0000 N   0  0  0  0  0  0  0  0  0  0  0  0
   -6.0000    0.0000    0.0000 N   0  0  0  0  0  0  0  0  0  0  0  0
   -5.2500   -1.2990    0.0000 N   0  0  0  0  0  0  0  0  0  0  0  0
   -3.7500   -1.2990    0.0000 N   0  0  0  0  0  0  0  0  0  0  0  0
   -3.0000   -2.5981    0.0000 C   0  0  0  0  0  0  0  0  0  0  0  0
   -3.7500   -3.8971    0.0000 C   0  0  0  0  0  0  0  0  0  0  0  0
   -3.0000   -5.1962    0.0000 C   0  0  0  0  0  0  0  0  0  0  0  0
   -1.5000   -5.1962    0.0000 C   0  0  0  0  0  0  0  0  0  0  0  0
   -0.7500   -3.8971    0.0000 C   0  0  0  0  0  0  0  0  0  0  0  0
   -1.5000   -2.5981    0.0000 C   0  0  0  0  0  0  0  0  0  0  0  0
   -0.7500    1.2990    0.0000 C   0  0  0  0  0  0  0  0  0  0  0  0
   -1.5000    2.5981    0.0000 O   0  0  0  0  0  0  0  0  0  0  0  0
    0.7500    1.2990    0.0000 N   0  0  0  0  0  0  0  0  0  0  0  0
  1  2  1  0
  2  3  2  0
  3  4  1  0
  4  5  2  0
  5  6  1  0
  6  7  1  0
  7  8  2  0
  8  9  1  0
  9 10  2  0
 10 11  1  0
 11 12  1  0
 12 13  2  0
 13 14  1  0
 14 15  2  0
 15 16  1  0
 16 17  2  0
  5 18  1  0
 18 19  2  0
 18 20  1  0
 20  2  1  0
 11  6  1  0
 17 12  1  0
M  END
>  <Title>  (1053) 
idABOMgen7

$$$$

     RDKit          2D

 36 40  0  0  0  0  0  0  0  0999 V2000
    5.2500   -1.2990    0.0000 C   0  0  0  0  0  0  0  0  0  0  0  0
    3.7500   -1.2990    0.0000 C   0  0  0  0  0  0  0  0  0  0  0  0
    3.0000   -2.5981    0.0000 O   0  0  0  0  0  0  0  0  0  0  0  0
    3.0000    0.0000    0.0000 N   0  0  0  0  0  0  0  0  0  0  0  0
    1.5000    0.0000    0.0000 C   0  0  0  0  0  0  0  0  0  0  0  0
    0.7500   -1.2990    0.0000 C   0  0  0  0  0  0  0  0  0  0  0  0
   -0.7500   -1.2990    0.0000 C   0  0  0  0  0  0  0  0  0  0  0  0
   -1.5000    0.0000    0.0000 C   0  0  0  0  0  0  0  0  0  0  0  0
   -3.0000    0.0000    0.0000 C   0  0  0  0  0  0  0  0  0  0  0  0
   -3.7500   -1.2990    0.0000 O   0  0  0  0  0  0  0  0  0  0  0  0
   -3.7500    1.2990    0.0000 N   0  0  0  0  0  0  0  0  0  0  0  0
   -5.2500    1.2990    0.0000 C   0  0  0  0  0  0  0  0  0  0  0  0
   -6.1317    0.0855    0.0000 N   0  0  0  0  0  0  0  0  0  0  0  0
   -7.5583    0.5490    0.0000 N   0  0  0  0  0  0  0  0  0  0  0  0
   -7.5583    2.0490    0.0000 N   0  0  0  0  0  0  0  0  0  0  0  0
   -6.1317    2.5126    0.0000 N   0  0  0  0  0  0  0  0  0  0  0  0
   -5.6682    3.9391    0.0000 C   0  0  0  0  0  0  0  0  0  0  0  0
   -4.2009    4.2510    0.0000 C   0  0  0  0  0  0  0  0  0  0  0  0
   -3.7374    5.6776    0.0000 C   0  0  0  0  0  0  0  0  0  0  0  0
   -4.7411    6.7923    0.0000 C   0  0  0  0  0  0  0  0  0  0  0  0
   -4.2776    8.2189    0.0000 C   0  0  0  0  0  0  0  0  0  0  0  0
   -5.1593    9.4324    0.0000 N   0  0  0  0  0  0  0  0  0  0  0  0
   -4.2776   10.6460    0.0000 N   0  0  0  0  0  0  0  0  0  0  0  0
   -2.8510   10.1824    0.0000 N   0  0  0  0  0  0  0  0  0  0  0  0
   -2.8510    8.6824    0.0000 N   0  0  0  0  0  0  0  0  0  0  0  0
   -1.6375    7.8008    0.0000 C   0  0  0  0  0  0  0  0  0  0  0  0
   -1.7943    6.3090    0.0000 C   0  0  0  0  0  0  0  0  0  0  0  0
   -0.5807    5.4273    0.0000 C   0  0  0  0  0  0  0  0  0  0  0  0
    0.7896    6.0374    0.0000 C   0  0  0  0  0  0  0  0  0  0  0  0
    0.9464    7.5292    0.0000 C   0  0  0  0  0  0  0  0  0  0  0  0
   -0.2671    8.4109    0.0000 C   0  0  0  0  0  0  0  0  0  0  0  0
   -6.2083    6.4805    0.0000 C   0  0  0  0  0  0  0  0  0  0  0  0
   -6.6718    5.0539    0.0000 C   0  0  0  0  0  0  0  0  0  0  0  0
   -0.7500    1.2990    0.0000 C   0  0  0  0  0  0  0  0  0  0  0  0
   -1.5000    2.5981    0.0000 O   0  0  0  0  0  0  0  0  0  0  0  0
    0.7500    1.2990    0.0000 N   0  0  0  0  0  0  0  0  0  0  0  0
  1  2  1  0
  2  3  2  0
  2  4  1  0
  4  5  1  0
  5  6  2  0
  6  7  1  0
  7  8  2  0
  8  9  1  0
  9 10  2  0
  9 11  1  0
 11 12  1  0
 12 13  2  0
 13 14  1  0
 14 15  2  0
 15 16  1  0
 16 17  1  0
 17 18  2  0
 18 19  1  0
 19 20  2  0
 20 21  1  0
 21 22  2  0
 22 23  1  0
 23 24  2  0
 24 25  1  0
 25 26  1  0
 26 27  2  0
 27 28  1  0
 28 29  2  0
 29 30  1  0
 30 31  2  0
 20 32  1  0
 32 33  2  0
  8 34  1  0
 34 35  2  0
 34 36  1  0
 36  5  1  0
 16 12  1  0
 33 17  1  0
 25 21  1  0
 31 26  1  0
M  END
>  <Title>  (1054) 
idABONgen7

$$$$

     RDKit          2D

 17 18  0  0  0  0  0  0  0  0999 V2000
    4.5086    6.3485    0.0000 C   0  0  0  0  0  0  0  0  0  0  0  0
    3.0911    5.8579    0.0000 O   0  0  0  0  0  0  0  0  0  0  0  0
    2.8073    4.3850    0.0000 C   0  0  0  0  0  0  0  0  0  0  0  0
    3.9409    3.4027    0.0000 C   0  0  0  0  0  0  0  0  0  0  0  0
    3.6570    1.9298    0.0000 C   0  0  0  0  0  0  0  0  0  0  0  0
    2.2395    1.4392    0.0000 C   0  0  0  0  0  0  0  0  0  0  0  0
    2.6621    0.0000    0.0000 C   0  0  0  0  0  0  0  0  0  0  0  0
    2.2395   -1.4392    0.0000 C   0  0  0  0  0  0  0  0  0  0  0  0
    1.1059   -2.4215    0.0000 C   0  0  0  0  0  0  0  0  0  0  0  0
   -0.3789   -2.6350    0.0000 C   0  0  0  0  0  0  0  0  0  0  0  0
   -1.7433   -2.0119    0.0000 C   0  0  0  0  0  0  0  0  0  0  0  0
   -2.5543   -0.7500    0.0000 C   0  0  0  0  0  0  0  0  0  0  0  0
   -2.5543    0.7500    0.0000 C   0  0  0  0  0  0  0  0  0  0  0  0
   -1.7433    2.0119    0.0000 C   0  0  0  0  0  0  0  0  0  0  0  0
   -0.3789    2.6350    0.0000 C   0  0  0  0  0  0  0  0  0  0  0  0
    1.1059    2.4215    0.0000 C   0  0  0  0  0  0  0  0  0  0  0  0
    1.3898    3.8944    0.0000 C   0  0  0  0  0  0  0  0  0  0  0  0
  1  2  1  0
  2  3  1  0
  3  4  2  0
  4  5  1  0
  5  6  2  0
  6  7  1  0
  7  8  2  0
  8  9  1  0
  9 10  2  0
 10 11  1  0
 11 12  2  0
 12 13  1  0
 13 14  2  0
 14 15  1  0
 15 16  2  0
 16 17  1  0
 17  3  1  0
 16  6  1  0
M  END
>  <Title>  (1055) 
idABOOgen7

$$$$

     RDKit          2D

 41 47  0  0  0  0  0  0  0  0999 V2000
    3.0000    0.0000    0.0000 C   0  0  0  0  0  0  0  0  0  0  0  0
    1.5000    0.0000    0.0000 C   0  0  0  0  0  0  0  0  0  0  0  0
    0.7500   -1.2990    0.0000 C   0  0  0  0  0  0  0  0  0  0  0  0
   -0.7500   -1.2990    0.0000 C   0  0  0  0  0  0  0  0  0  0  0  0
   -1.5000    0.0000    0.0000 C   0  0  0  0  0  0  0  0  0  0  0  0
   -3.0000    0.0000    0.0000 C   0  0  0  0  0  0  0  0  0  0  0  0
   -3.8817   -1.2135    0.0000 N   0  0  0  0  0  0  0  0  0  0  0  0
   -5.3083   -0.7500    0.0000 N   0  0  0  0  0  0  0  0  0  0  0  0
   -5.3083    0.7500    0.0000 N   0  0  0  0  0  0  0  0  0  0  0  0
   -3.8817    1.2135    0.0000 N   0  0  0  0  0  0  0  0  0  0  0  0
   -3.4182    2.6401    0.0000 C   0  0  0  0  0  0  0  0  0  0  0  0
   -1.9509    2.9520    0.0000 C   0  0  0  0  0  0  0  0  0  0  0  0
   -1.4874    4.3786    0.0000 C   0  0  0  0  0  0  0  0  0  0  0  0
   -2.4911    5.4933    0.0000 C   0  0  0  0  0  0  0  0  0  0  0  0
   -2.0276    6.9199    0.0000 C   0  0  0  0  0  0  0  0  0  0  0  0
   -2.9093    8.1334    0.0000 N   0  0  0  0  0  0  0  0  0  0  0  0
   -2.0276    9.3469    0.0000 N   0  0  0  0  0  0  0  0  0  0  0  0
   -0.6010    8.8834    0.0000 N   0  0  0  0  0  0  0  0  0  0  0  0
   -0.6010    7.3834    0.0000 N   0  0  0  0  0  0  0  0  0  0  0  0
    0.6125    6.5017    0.0000 C   0  0  0  0  0  0  0  0  0  0  0  0
    0.4557    5.0099    0.0000 C   0  0  0  0  0  0  0  0  0  0  0  0
    1.6693    4.1283    0.0000 C   0  0  0  0  0  0  0  0  0  0  0  0
    3.0396    4.7384    0.0000 C   0  0  0  0  0  0  0  0  0  0  0  0
    3.1964    6.2301    0.0000 C   0  0  0  0  0  0  0  0  0  0  0  0
    1.9829    7.1118    0.0000 C   0  0  0  0  0  0  0  0  0  0  0  0
   -3.9583    5.1814    0.0000 C   0  0  0  0  0  0  0  0  0  0  0  0
   -4.4218    3.7548    0.0000 C   0  0  0  0  0  0  0  0  0  0  0  0
   -5.8891    3.4430    0.0000 N   0  0  0  0  0  0  0  0  0  0  0  0
   -6.3526    2.0164    0.0000 N   0  0  0  0  0  0  0  0  0  0  0  0
   -7.8198    1.7045    0.0000 N   0  0  0  0  0  0  0  0  0  0  0  0
   -8.8235    2.8192    0.0000 N   0  0  0  0  0  0  0  0  0  0  0  0
   -8.3600    4.2458    0.0000 N   0  0  0  0  0  0  0  0  0  0  0  0
   -6.8928    4.5577    0.0000 N   0  0  0  0  0  0  0  0  0  0  0  0
   -6.4292    5.9843    0.0000 C   0  0  0  0  0  0  0  0  0  0  0  0
   -7.4329    7.0990    0.0000 C   0  0  0  0  0  0  0  0  0  0  0  0
   -6.9694    8.5256    0.0000 C   0  0  0  0  0  0  0  0  0  0  0  0
   -5.5022    8.8374    0.0000 C   0  0  0  0  0  0  0  0  0  0  0  0
   -4.4985    7.7227    0.0000 C   0  0  0  0  0  0  0  0  0  0  0  0
   -4.9620    6.2961    0.0000 C   0  0  0  0  0  0  0  0  0  0  0  0
   -0.7500    1.2990    0.0000 C   0  0  0  0  0  0  0  0  0  0  0  0
    0.7500    1.2990    0.0000 C   0  0  0  0  0  0  0  0  0  0  0  0
  1  2  1  0
  2  3  2  0
  3  4  1  0
  4  5  2  0
  5  6  1  0
  6  7  2  0
  7  8  1  0
  8  9  2  0
  9 10  1  0
 10 11  1  0
 11 12  2  0
 12 13  1  0
 13 14  2  0
 14 15  1  0
 15 16  2  0
 16 17  1  0
 17 18  2  0
 18 19  1  0
 19 20  1  0
 20 21  2  0
 21 22  1  0
 22 23  2  0
 23 24  1  0
 24 25  2  0
 14 26  1  0
 26 27  2  0
 27 28  1  0
 28 29  1  0
 29 30  2  0
 30 31  1  0
 31 32  2  0
 32 33  1  0
 33 34  1  0
 34 35  2  0
 35 36  1  0
 36 37  2  0
 37 38  1  0
 38 39  2  0
  5 40  1  0
 40 41  2  0
 41  2  1  0
 10  6  1  0
 27 11  1  0
 33 28  1  0
 39 34  1  0
 19 15  1  0
 25 20  1  0
M  END
>  <Title>  (1056) 
idABOPgen7

$$$$

     RDKit          2D

 39 44  0  0  0  0  0  0  0  0999 V2000
    4.9907    4.8518    0.0000 C   0  0  0  0  0  0  0  0  0  0  0  0
    3.5218    4.5479    0.0000 C   0  0  0  0  0  0  0  0  0  0  0  0
    3.3996    3.0529    0.0000 C   0  0  0  0  0  0  0  0  0  0  0  0
    2.4884    1.8613    0.0000 C   0  0  0  0  0  0  0  0  0  0  0  0
    1.0777    1.3515    0.0000 C   0  0  0  0  0  0  0  0  0  0  0  0
    1.7286    0.0000    0.0000 C   0  0  0  0  0  0  0  0  0  0  0  0
    1.0777   -1.3515    0.0000 C   0  0  0  0  0  0  0  0  0  0  0  0
   -0.3846   -1.6852    0.0000 C   0  0  0  0  0  0  0  0  0  0  0  0
   -1.5574   -0.7500    0.0000 C   0  0  0  0  0  0  0  0  0  0  0  0
   -1.5574    0.7500    0.0000 C   0  0  0  0  0  0  0  0  0  0  0  0
   -0.3846    1.6852    0.0000 C   0  0  0  0  0  0  0  0  0  0  0  0
   -1.4344    2.7567    0.0000 C   0  0  0  0  0  0  0  0  0  0  0  0
   -1.7383    4.2256    0.0000 C   0  0  0  0  0  0  0  0  0  0  0  0
   -1.1998    5.6256    0.0000 C   0  0  0  0  0  0  0  0  0  0  0  0
    0.0101    6.5122    0.0000 C   0  0  0  0  0  0  0  0  0  0  0  0
   -1.2751    7.2856    0.0000 N   0  0  0  0  0  0  0  0  0  0  0  0
   -2.7568    7.0520    0.0000 N   0  0  0  0  0  0  0  0  0  0  0  0
   -3.7417    5.9206    0.0000 N   0  0  0  0  0  0  0  0  0  0  0  0
   -3.7689    4.4208    0.0000 N   0  0  0  0  0  0  0  0  0  0  0  0
   -2.8257    3.2545    0.0000 N   0  0  0  0  0  0  0  0  0  0  0  0
   -3.5991    1.9692    0.0000 C   0  0  0  0  0  0  0  0  0  0  0  0
   -5.0989    1.9964    0.0000 C   0  0  0  0  0  0  0  0  0  0  0  0
   -5.8723    0.7112    0.0000 C   0  0  0  0  0  0  0  0  0  0  0  0
   -5.1460   -0.6012    0.0000 C   0  0  0  0  0  0  0  0  0  0  0  0
   -5.9194   -1.8864    0.0000 C   0  0  0  0  0  0  0  0  0  0  0  0
   -5.3342   -3.2676    0.0000 N   0  0  0  0  0  0  0  0  0  0  0  0
   -6.4670   -4.2509    0.0000 N   0  0  0  0  0  0  0  0  0  0  0  0
   -7.7522   -3.4775    0.0000 N   0  0  0  0  0  0  0  0  0  0  0  0
   -7.4138   -2.0162    0.0000 N   0  0  0  0  0  0  0  0  0  0  0  0
   -8.3971   -0.8834    0.0000 C   0  0  0  0  0  0  0  0  0  0  0  0
   -7.9078    0.5345    0.0000 C   0  0  0  0  0  0  0  0  0  0  0  0
   -8.8911    1.6673    0.0000 C   0  0  0  0  0  0  0  0  0  0  0  0
  -10.3637    1.3820    0.0000 C   0  0  0  0  0  0  0  0  0  0  0  0
  -10.8531   -0.0359    0.0000 C   0  0  0  0  0  0  0  0  0  0  0  0
   -9.8697   -1.1686    0.0000 C   0  0  0  0  0  0  0  0  0  0  0  0
   -3.6462   -0.6284    0.0000 C   0  0  0  0  0  0  0  0  0  0  0  0
   -2.8728    0.6568    0.0000 C   0  0  0  0  0  0  0  0  0  0  0  0
    1.5073    6.6039    0.0000 C   0  0  0  0  0  0  0  0  0  0  0  0
    2.8164    5.8717    0.0000 C   0  0  0  0  0  0  0  0  0  0  0  0
  1  2  1  0
  2  3  2  0
  3  4  1  0
  4  5  2  0
  5  6  1  0
  6  7  2  0
  7  8  1  0
  8  9  2  0
  9 10  1  0
 10 11  2  0
 11 12  1  0
 12 13  2  0
 13 14  1  0
 14 15  2  0
 15 16  1  0
 16 17  2  0
 17 18  1  0
 18 19  2  0
 19 20  1  0
 20 21  1  0
 21 22  2  0
 22 23  1  0
 23 24  2  0
 24 25  1  0
 25 26  2  0
 26 27  1  0
 27 28  2  0
 28 29  1  0
 29 30  1  0
 30 31  2  0
 31 32  1  0
 32 33  2  0
 33 34  1  0
 34 35  2  0
 24 36  1  0
 36 37  2  0
 15 38  1  0
 38 39  2  0
 39  2  1  0
 11  5  1  0
 20 12  1  0
 37 21  1  0
 29 25  1  0
 35 30  1  0
M  END
>  <Title>  (1057) 
idABOQgen7

$$$$

     RDKit          2D

 23 25  0  0  0  0  0  0  0  0999 V2000
    3.7500   -1.2990    0.0000 C   0  0  0  0  0  0  0  0  0  0  0  0
    3.0000    0.0000    0.0000 O   0  0  0  0  0  0  0  0  0  0  0  0
    1.5000    0.0000    0.0000 C   0  0  0  0  0  0  0  0  0  0  0  0
    0.7500   -1.2990    0.0000 C   0  0  0  0  0  0  0  0  0  0  0  0
   -0.7500   -1.2990    0.0000 C   0  0  0  0  0  0  0  0  0  0  0  0
   -1.5000    0.0000    0.0000 C   0  0  0  0  0  0  0  0  0  0  0  0
   -3.0000    0.0000    0.0000 C   0  0  0  0  0  0  0  0  0  0  0  0
   -3.8817   -1.2135    0.0000 N   0  0  0  0  0  0  0  0  0  0  0  0
   -5.3083   -0.7500    0.0000 N   0  0  0  0  0  0  0  0  0  0  0  0
   -5.3083    0.7500    0.0000 N   0  0  0  0  0  0  0  0  0  0  0  0
   -3.8817    1.2135    0.0000 N   0  0  0  0  0  0  0  0  0  0  0  0
   -3.4182    2.6401    0.0000 C   0  0  0  0  0  0  0  0  0  0  0  0
   -1.9509    2.9520    0.0000 C   0  0  0  0  0  0  0  0  0  0  0  0
   -1.4874    4.3786    0.0000 C   0  0  0  0  0  0  0  0  0  0  0  0
   -2.4911    5.4933    0.0000 C   0  0  0  0  0  0  0  0  0  0  0  0
   -2.0276    6.9199    0.0000 C   0  0  0  0  0  0  0  0  0  0  0  0
   -3.0313    8.0346    0.0000 O   0  0  0  0  0  0  0  0  0  0  0  0
   -0.5604    7.2317    0.0000 N   0  0  0  0  0  0  0  0  0  0  0  0
   -0.0968    8.6583    0.0000 O   0  0  0  0  0  0  0  0  0  0  0  0
   -3.9583    5.1814    0.0000 C   0  0  0  0  0  0  0  0  0  0  0  0
   -4.4218    3.7548    0.0000 C   0  0  0  0  0  0  0  0  0  0  0  0
   -0.7500    1.2990    0.0000 C   0  0  0  0  0  0  0  0  0  0  0  0
    0.7500    1.2990    0.0000 C   0  0  0  0  0  0  0  0  0  0  0  0
  1  2  1  0
  2  3  1  0
  3  4  2  0
  4  5  1  0
  5  6  2  0
  6  7  1  0
  7  8  2  0
  8  9  1  0
  9 10  2  0
 10 11  1  0
 11 12  1  0
 12 13  2  0
 13 14  1  0
 14 15  2  0
 15 16  1  0
 16 17  2  0
 16 18  1  0
 18 19  1  0
 15 20  1  0
 20 21  1  0
  6 22  1  0
 22 23  2  0
 23  3  1  0
 11  7  1  0
 21 12  1  0
M  END
>  <Title>  (1058) 
idABORgen7

$$$$

     RDKit          2D

 37 41  0  0  0  0  0  0  0  0999 V2000
    6.0000   -2.5981    0.0000 C   0  0  0  0  0  0  0  0  0  0  0  0
    5.2500   -1.2990    0.0000 C   0  0  0  0  0  0  0  0  0  0  0  0
    6.0000    0.0000    0.0000 C   0  0  0  0  0  0  0  0  0  0  0  0
    3.7500   -1.2990    0.0000 N   0  0  0  0  0  0  0  0  0  0  0  0
    3.0000    0.0000    0.0000 C   0  0  0  0  0  0  0  0  0  0  0  0
    3.7500    1.2990    0.0000 O   0  0  0  0  0  0  0  0  0  0  0  0
    1.5000    0.0000    0.0000 C   0  0  0  0  0  0  0  0  0  0  0  0
    0.7500   -1.2990    0.0000 C   0  0  0  0  0  0  0  0  0  0  0  0
   -0.7500   -1.2990    0.0000 C   0  0  0  0  0  0  0  0  0  0  0  0
   -1.5000    0.0000    0.0000 C   0  0  0  0  0  0  0  0  0  0  0  0
   -3.0000    0.0000    0.0000 C   0  0  0  0  0  0  0  0  0  0  0  0
   -3.7500   -1.2990    0.0000 O   0  0  0  0  0  0  0  0  0  0  0  0
   -3.7500    1.2990    0.0000 N   0  0  0  0  0  0  0  0  0  0  0  0
   -5.2500    1.2990    0.0000 C   0  0  0  0  0  0  0  0  0  0  0  0
   -6.1317    0.0855    0.0000 N   0  0  0  0  0  0  0  0  0  0  0  0
   -7.5583    0.5490    0.0000 N   0  0  0  0  0  0  0  0  0  0  0  0
   -7.5583    2.0490    0.0000 N   0  0  0  0  0  0  0  0  0  0  0  0
   -6.1317    2.5126    0.0000 N   0  0  0  0  0  0  0  0  0  0  0  0
   -5.6682    3.9391    0.0000 C   0  0  0  0  0  0  0  0  0  0  0  0
   -4.2009    4.2510    0.0000 C   0  0  0  0  0  0  0  0  0  0  0  0
   -3.7374    5.6776    0.0000 C   0  0  0  0  0  0  0  0  0  0  0  0
   -4.7411    6.7923    0.0000 C   0  0  0  0  0  0  0  0  0  0  0  0
   -4.2776    8.2189    0.0000 C   0  0  0  0  0  0  0  0  0  0  0  0
   -5.1593    9.4324    0.0000 N   0  0  0  0  0  0  0  0  0  0  0  0
   -4.2776   10.6460    0.0000 N   0  0  0  0  0  0  0  0  0  0  0  0
   -2.8510   10.1824    0.0000 N   0  0  0  0  0  0  0  0  0  0  0  0
   -2.8510    8.6824    0.0000 N   0  0  0  0  0  0  0  0  0  0  0  0
   -1.6375    7.8008    0.0000 C   0  0  0  0  0  0  0  0  0  0  0  0
   -1.7943    6.3090    0.0000 C   0  0  0  0  0  0  0  0  0  0  0  0
   -0.5807    5.4273    0.0000 C   0  0  0  0  0  0  0  0  0  0  0  0
    0.7896    6.0374    0.0000 C   0  0  0  0  0  0  0  0  0  0  0  0
    0.9464    7.5292    0.0000 N   0  0  0  0  0  0  0  0  0  0  0  0
   -0.2671    8.4109    0.0000 C   0  0  0  0  0  0  0  0  0  0  0  0
   -6.2083    6.4805    0.0000 C   0  0  0  0  0  0  0  0  0  0  0  0
   -6.6718    5.0539    0.0000 C   0  0  0  0  0  0  0  0  0  0  0  0
   -0.7500    1.2990    0.0000 C   0  0  0  0  0  0  0  0  0  0  0  0
    0.7500    1.2990    0.0000 C   0  0  0  0  0  0  0  0  0  0  0  0
  1  2  1  0
  2  3  1  0
  2  4  1  0
  4  5  1  0
  5  6  2  0
  5  7  1  0
  7  8  1  0
  8  9  2  0
  9 10  1  0
 10 11  1  0
 11 12  2  0
 11 13  1  0
 13 14  1  0
 14 15  2  0
 15 16  1  0
 16 17  2  0
 17 18  1  0
 18 19  1  0
 19 20  2  0
 20 21  1  0
 21 22  2  0
 22 23  1  0
 23 24  2  0
 24 25  1  0
 25 26  2  0
 26 27  1  0
 27 28  1  0
 28 29  2  0
 29 30  1  0
 30 31  2  0
 31 32  1  0
 32 33  2  0
 22 34  1  0
 34 35  2  0
 10 36  2  0
 36 37  1  0
 37  7  1  0
 18 14  1  0
 35 19  1  0
 27 23  1  0
 33 28  1  0
M  END
>  <Title>  (1059) 
idABOSgen7

$$$$

     RDKit          2D

 11 12  0  0  0  0  0  0  0  0999 V2000
   -1.8068    3.9485    0.0000 O   0  0  0  0  0  0  0  0  0  0  0  0
   -0.5191    3.1792    0.0000 C   0  0  0  0  0  0  0  0  0  0  0  0
    0.8602    3.7687    0.0000 C   0  0  0  0  0  0  0  0  0  0  0  0
    1.8471    2.6391    0.0000 C   0  0  0  0  0  0  0  0  0  0  0  0
    1.0777    1.3515    0.0000 C   0  0  0  0  0  0  0  0  0  0  0  0
    1.7286    0.0000    0.0000 C   0  0  0  0  0  0  0  0  0  0  0  0
    1.0777   -1.3515    0.0000 C   0  0  0  0  0  0  0  0  0  0  0  0
   -0.3846   -1.6852    0.0000 C   0  0  0  0  0  0  0  0  0  0  0  0
   -1.5574   -0.7500    0.0000 C   0  0  0  0  0  0  0  0  0  0  0  0
   -1.5574    0.7500    0.0000 C   0  0  0  0  0  0  0  0  0  0  0  0
   -0.3846    1.6852    0.0000 C   0  0  0  0  0  0  0  0  0  0  0  0
  1  2  1  0
  2  3  2  0
  3  4  1  0
  4  5  2  0
  5  6  1  0
  6  7  2  0
  7  8  1  0
  8  9  2  0
  9 10  1  0
 10 11  2  0
 11  2  1  0
 11  5  1  0
M  END
>  <Title>  (1060) 
idABOTgen7

$$$$

     RDKit          2D

 59 66  0  0  0  0  0  0  0  0999 V2000
   -3.9205   -4.3214    0.0000 C   0  0  0  0  0  0  0  0  0  0  0  0
   -2.5242   -4.8694    0.0000 O   0  0  0  0  0  0  0  0  0  0  0  0
   -1.3515   -3.9342    0.0000 C   0  0  0  0  0  0  0  0  0  0  0  0
   -0.0000   -4.5850    0.0000 C   0  0  0  0  0  0  0  0  0  0  0  0
    1.3515   -3.9342    0.0000 C   0  0  0  0  0  0  0  0  0  0  0  0
    1.6852   -2.4718    0.0000 C   0  0  0  0  0  0  0  0  0  0  0  0
    3.1476   -2.1380    0.0000 C   0  0  0  0  0  0  0  0  0  0  0  0
    3.5898   -0.7046    0.0000 O   0  0  0  0  0  0  0  0  0  0  0  0
    4.1679   -3.2376    0.0000 N   0  0  0  0  0  0  0  0  0  0  0  0
    5.6303   -2.9038    0.0000 C   0  0  0  0  0  0  0  0  0  0  0  0
    6.2198   -1.5245    0.0000 N   0  0  0  0  0  0  0  0  0  0  0  0
    7.7138   -1.6590    0.0000 N   0  0  0  0  0  0  0  0  0  0  0  0
    8.0476   -3.1214    0.0000 N   0  0  0  0  0  0  0  0  0  0  0  0
    6.7599   -3.8907    0.0000 N   0  0  0  0  0  0  0  0  0  0  0  0
    6.6254   -5.3847    0.0000 C   0  0  0  0  0  0  0  0  0  0  0  0
    7.7550   -6.3716    0.0000 C   0  0  0  0  0  0  0  0  0  0  0  0
    7.1655   -7.7509    0.0000 C   0  0  0  0  0  0  0  0  0  0  0  0
    5.6715   -7.6164    0.0000 C   0  0  0  0  0  0  0  0  0  0  0  0
    4.6846   -8.7460    0.0000 C   0  0  0  0  0  0  0  0  0  0  0  0
    5.1694  -10.1655    0.0000 O   0  0  0  0  0  0  0  0  0  0  0  0
    3.2129   -8.4561    0.0000 N   0  0  0  0  0  0  0  0  0  0  0  0
    2.2260   -9.5857    0.0000 C   0  0  0  0  0  0  0  0  0  0  0  0
    2.7108  -11.0052    0.0000 O   0  0  0  0  0  0  0  0  0  0  0  0
    0.7543   -9.2959    0.0000 C   0  0  0  0  0  0  0  0  0  0  0  0
    0.1237   -7.9348    0.0000 N   0  0  0  0  0  0  0  0  0  0  0  0
   -1.3655   -8.1139    0.0000 N   0  0  0  0  0  0  0  0  0  0  0  0
   -1.6554   -9.5856    0.0000 N   0  0  0  0  0  0  0  0  0  0  0  0
   -0.3453  -10.3161    0.0000 N   0  0  0  0  0  0  0  0  0  0  0  0
   -0.1662  -11.8054    0.0000 C   0  0  0  0  0  0  0  0  0  0  0  0
    1.1439  -12.5359    0.0000 C   0  0  0  0  0  0  0  0  0  0  0  0
    0.8540  -14.0076    0.0000 C   0  0  0  0  0  0  0  0  0  0  0  0
   -0.6353  -14.1867    0.0000 C   0  0  0  0  0  0  0  0  0  0  0  0
   -1.3657  -15.4968    0.0000 C   0  0  0  0  0  0  0  0  0  0  0  0
   -2.8656  -15.5192    0.0000 C   0  0  0  0  0  0  0  0  0  0  0  0
   -3.5961  -16.8293    0.0000 C   0  0  0  0  0  0  0  0  0  0  0  0
   -2.8267  -18.1170    0.0000 C   0  0  0  0  0  0  0  0  0  0  0  0
   -1.3269  -18.0946    0.0000 C   0  0  0  0  0  0  0  0  0  0  0  0
   -0.5964  -16.7845    0.0000 C   0  0  0  0  0  0  0  0  0  0  0  0
   -1.2658  -12.8256    0.0000 C   0  0  0  0  0  0  0  0  0  0  0  0
   -2.7375  -12.5358    0.0000 O   0  0  0  0  0  0  0  0  0  0  0  0
    5.3378   -6.1540    0.0000 C   0  0  0  0  0  0  0  0  0  0  0  0
    3.9585   -5.5645    0.0000 O   0  0  0  0  0  0  0  0  0  0  0  0
    0.7500   -1.2990    0.0000 C   0  0  0  0  0  0  0  0  0  0  0  0
    1.5000    0.0000    0.0000 C   0  0  0  0  0  0  0  0  0  0  0  0
    0.7500    1.2990    0.0000 C   0  0  0  0  0  0  0  0  0  0  0  0
   -0.7500    1.2990    0.0000 C   0  0  0  0  0  0  0  0  0  0  0  0
   -1.5000    2.5981    0.0000 C   0  0  0  0  0  0  0  0  0  0  0  0
   -3.0000    2.5981    0.0000 O   0  0  0  0  0  0  0  0  0  0  0  0
   -0.7500    3.8971    0.0000 N   0  0  0  0  0  0  0  0  0  0  0  0
   -1.5000    5.1962    0.0000 C   0  0  0  0  0  0  0  0  0  0  0  0
   -0.7500    6.4952    0.0000 C   0  0  0  0  0  0  0  0  0  0  0  0
   -1.5000    7.7942    0.0000 C   0  0  0  0  0  0  0  0  0  0  0  0
   -3.0000    7.7942    0.0000 C   0  0  0  0  0  0  0  0  0  0  0  0
   -3.7500    6.4952    0.0000 C   0  0  0  0  0  0  0  0  0  0  0  0
   -3.0000    5.1962    0.0000 C   0  0  0  0  0  0  0  0  0  0  0  0
   -1.5000    0.0000    0.0000 C   0  0  0  0  0  0  0  0  0  0  0  0
   -0.7500   -1.2990    0.0000 C   0  0  0  0  0  0  0  0  0  0  0  0
   -1.6852   -2.4718    0.0000 C   0  0  0  0  0  0  0  0  0  0  0  0
   -3.1476   -2.1380    0.0000 O   0  0  0  0  0  0  0  0  0  0  0  0
  1  2  1  0
  2  3  1  0
  3  4  2  0
  4  5  1  0
  5  6  2  0
  6  7  1  0
  7  8  2  0
  7  9  1  0
  9 10  1  0
 10 11  2  0
 11 12  1  0
 12 13  2  0
 13 14  1  0
 14 15  1  0
 15 16  2  0
 16 17  1  0
 17 18  2  0
 18 19  1  0
 19 20  2  0
 19 21  1  0
 21 22  1  0
 22 23  2  0
 22 24  1  0
 24 25  2  0
 25 26  1  0
 26 27  2  0
 27 28  1  0
 28 29  1  0
 29 30  2  0
 30 31  1  0
 31 32  2  0
 32 33  1  0
 33 34  2  0
 34 35  1  0
 35 36  2  0
 36 37  1  0
 37 38  2  0
 32 39  1  0
 39 40  2  0
 18 41  1  0
 41 42  2  0
  6 43  1  0
 43 44  2  0
 44 45  1  0
 45 46  2  0
 46 47  1  0
 47 48  2  0
 47 49  1  0
 49 50  1  0
 50 51  2  0
 51 52  1  0
 52 53  2  0
 53 54  1  0
 54 55  2  0
 46 56  1  0
 56 57  2  0
 57 58  1  0
 58 59  2  0
 58  3  1  0
 14 10  1  0
 41 15  1  0
 57 43  1  0
 28 24  1  0
 39 29  1  0
 55 50  1  0
 38 33  1  0
M  END
>  <Title>  (1061) 
idABOUgen7

$$$$

     RDKit          2D

 23 25  0  0  0  0  0  0  0  0999 V2000
    3.0000    0.0000    0.0000 C   0  0  0  0  0  0  0  0  0  0  0  0
    1.5000    0.0000    0.0000 C   0  0  0  0  0  0  0  0  0  0  0  0
    0.7500   -1.2990    0.0000 C   0  0  0  0  0  0  0  0  0  0  0  0
   -0.7500   -1.2990    0.0000 C   0  0  0  0  0  0  0  0  0  0  0  0
   -1.5000    0.0000    0.0000 C   0  0  0  0  0  0  0  0  0  0  0  0
   -3.0000    0.0000    0.0000 C   0  0  0  0  0  0  0  0  0  0  0  0
   -3.7500   -1.2990    0.0000 O   0  0  0  0  0  0  0  0  0  0  0  0
   -3.7500    1.2990    0.0000 N   0  0  0  0  0  0  0  0  0  0  0  0
   -5.2500    1.2990    0.0000 C   0  0  0  0  0  0  0  0  0  0  0  0
   -6.1317    0.0855    0.0000 N   0  0  0  0  0  0  0  0  0  0  0  0
   -7.5583    0.5490    0.0000 N   0  0  0  0  0  0  0  0  0  0  0  0
   -7.5583    2.0490    0.0000 N   0  0  0  0  0  0  0  0  0  0  0  0
   -6.1317    2.5126    0.0000 N   0  0  0  0  0  0  0  0  0  0  0  0
   -5.6682    3.9391    0.0000 C   0  0  0  0  0  0  0  0  0  0  0  0
   -4.2009    4.2510    0.0000 C   0  0  0  0  0  0  0  0  0  0  0  0
   -3.7374    5.6776    0.0000 C   0  0  0  0  0  0  0  0  0  0  0  0
   -4.7411    6.7923    0.0000 C   0  0  0  0  0  0  0  0  0  0  0  0
   -4.2776    8.2189    0.0000 C   0  0  0  0  0  0  0  0  0  0  0  0
   -6.2083    6.4805    0.0000 C   0  0  0  0  0  0  0  0  0  0  0  0
   -7.2120    7.5952    0.0000 C   0  0  0  0  0  0  0  0  0  0  0  0
   -6.6718    5.0539    0.0000 C   0  0  0  0  0  0  0  0  0  0  0  0
   -0.7500    1.2990    0.0000 N   0  0  0  0  0  0  0  0  0  0  0  0
    0.7500    1.2990    0.0000 N   0  0  0  0  0  0  0  0  0  0  0  0
  1  2  1  0
  2  3  2  0
  3  4  1  0
  4  5  2  0
  5  6  1  0
  6  7  2  0
  6  8  1  0
  8  9  1  0
  9 10  2  0
 10 11  1  0
 11 12  2  0
 12 13  1  0
 13 14  1  0
 14 15  2  0
 15 16  1  0
 16 17  2  0
 17 18  1  0
 17 19  1  0
 19 20  1  0
 19 21  2  0
  5 22  1  0
 22 23  2  0
 23  2  1  0
 13  9  1  0
 21 14  1  0
M  END
>  <Title>  (1062) 
idABOVgen7

$$$$

     RDKit          2D

 52 59  0  0  0  0  0  0  0  0999 V2000
   -7.5715   -2.5075    0.0000 C   0  0  0  0  0  0  0  0  0  0  0  0
   -6.4129   -1.5548    0.0000 C   0  0  0  0  0  0  0  0  0  0  0  0
   -6.6586   -0.0751    0.0000 C   0  0  0  0  0  0  0  0  0  0  0  0
   -5.5000    0.8776    0.0000 C   0  0  0  0  0  0  0  0  0  0  0  0
   -4.0956    0.3505    0.0000 C   0  0  0  0  0  0  0  0  0  0  0  0
   -2.9370    1.3032    0.0000 C   0  0  0  0  0  0  0  0  0  0  0  0
   -3.1827    2.7830    0.0000 O   0  0  0  0  0  0  0  0  0  0  0  0
   -1.5326    0.7762    0.0000 N   0  0  0  0  0  0  0  0  0  0  0  0
   -0.3740    1.7288    0.0000 C   0  0  0  0  0  0  0  0  0  0  0  0
   -0.4637    3.2261    0.0000 N   0  0  0  0  0  0  0  0  0  0  0  0
    0.9326    3.7742    0.0000 N   0  0  0  0  0  0  0  0  0  0  0  0
    1.8853    2.6155    0.0000 N   0  0  0  0  0  0  0  0  0  0  0  0
    1.0777    1.3515    0.0000 N   0  0  0  0  0  0  0  0  0  0  0  0
    1.6258   -0.0449    0.0000 C   0  0  0  0  0  0  0  0  0  0  0  0
    0.6905   -1.2176    0.0000 C   0  0  0  0  0  0  0  0  0  0  0  0
    1.2385   -2.6139    0.0000 C   0  0  0  0  0  0  0  0  0  0  0  0
    2.7218   -2.8375    0.0000 C   0  0  0  0  0  0  0  0  0  0  0  0
    3.2698   -4.2338    0.0000 C   0  0  0  0  0  0  0  0  0  0  0  0
    4.7215   -4.6112    0.0000 N   0  0  0  0  0  0  0  0  0  0  0  0
    4.8113   -6.1085    0.0000 N   0  0  0  0  0  0  0  0  0  0  0  0
    3.4149   -6.6565    0.0000 N   0  0  0  0  0  0  0  0  0  0  0  0
    2.4623   -5.4979    0.0000 N   0  0  0  0  0  0  0  0  0  0  0  0
    0.9650   -5.5876    0.0000 C   0  0  0  0  0  0  0  0  0  0  0  0
    0.1386   -4.3357    0.0000 C   0  0  0  0  0  0  0  0  0  0  0  0
   -1.3587   -4.4254    0.0000 C   0  0  0  0  0  0  0  0  0  0  0  0
   -2.0297   -5.7670    0.0000 C   0  0  0  0  0  0  0  0  0  0  0  0
   -1.2033   -7.0188    0.0000 C   0  0  0  0  0  0  0  0  0  0  0  0
    0.2940   -6.9291    0.0000 C   0  0  0  0  0  0  0  0  0  0  0  0
    3.6570   -1.6647    0.0000 C   0  0  0  0  0  0  0  0  0  0  0  0
    3.1090   -0.2684    0.0000 C   0  0  0  0  0  0  0  0  0  0  0  0
    4.0442    0.9043    0.0000 C   0  0  0  0  0  0  0  0  0  0  0  0
    3.4962    2.3006    0.0000 C   0  0  0  0  0  0  0  0  0  0  0  0
    4.4315    3.4734    0.0000 C   0  0  0  0  0  0  0  0  0  0  0  0
    5.9147    3.2498    0.0000 C   0  0  0  0  0  0  0  0  0  0  0  0
    6.8499    4.4226    0.0000 C   0  0  0  0  0  0  0  0  0  0  0  0
    6.3019    5.8189    0.0000 C   0  0  0  0  0  0  0  0  0  0  0  0
    7.2372    6.9916    0.0000 C   0  0  0  0  0  0  0  0  0  0  0  0
    8.7204    6.7681    0.0000 C   0  0  0  0  0  0  0  0  0  0  0  0
    9.2684    5.3718    0.0000 C   0  0  0  0  0  0  0  0  0  0  0  0
    8.3332    4.1990    0.0000 C   0  0  0  0  0  0  0  0  0  0  0  0
    6.4627    1.8535    0.0000 C   0  0  0  0  0  0  0  0  0  0  0  0
    5.5275    0.6808    0.0000 C   0  0  0  0  0  0  0  0  0  0  0  0
    6.0755   -0.7155    0.0000 C   0  0  0  0  0  0  0  0  0  0  0  0
    7.5587   -0.9391    0.0000 C   0  0  0  0  0  0  0  0  0  0  0  0
    8.4037    0.3002    0.0000 C   0  0  0  0  0  0  0  0  0  0  0  0
    9.8995    0.4123    0.0000 C   0  0  0  0  0  0  0  0  0  0  0  0
   10.9198   -0.6872    0.0000 C   0  0  0  0  0  0  0  0  0  0  0  0
   10.6962   -2.1705    0.0000 C   0  0  0  0  0  0  0  0  0  0  0  0
    9.3972   -2.9205    0.0000 C   0  0  0  0  0  0  0  0  0  0  0  0
    8.0009   -2.3725    0.0000 C   0  0  0  0  0  0  0  0  0  0  0  0
   -3.8499   -1.1292    0.0000 C   0  0  0  0  0  0  0  0  0  0  0  0
   -5.0085   -2.0819    0.0000 C   0  0  0  0  0  0  0  0  0  0  0  0
  1  2  1  0
  2  3  2  0
  3  4  1  0
  4  5  2  0
  5  6  1  0
  6  7  2  0
  6  8  1  0
  8  9  1  0
  9 10  2  0
 10 11  1  0
 11 12  2  0
 12 13  1  0
 13 14  1  0
 14 15  2  0
 15 16  1  0
 16 17  2  0
 17 18  1  0
 18 19  2  0
 19 20  1  0
 20 21  2  0
 21 22  1  0
 22 23  1  0
 23 24  2  0
 24 25  1  0
 25 26  2  0
 26 27  1  0
 27 28  2  0
 17 29  1  0
 29 30  2  0
 30 31  1  0
 31 32  2  0
 32 33  1  0
 33 34  2  0
 34 35  1  0
 35 36  2  0
 36 37  1  0
 37 38  2  0
 38 39  1  0
 39 40  2  0
 34 41  1  0
 41 42  2  0
 42 43  1  0
 43 44  2  3
 44 45  1  0
 45 46  2  0
 46 47  1  0
 47 48  2  0
 48 49  1  0
 49 50  2  0
  5 51  1  0
 51 52  2  0
 52  2  1  0
 13  9  1  0
 30 14  1  0
 42 31  1  0
 50 44  1  0
 22 18  1  0
 28 23  1  0
 40 35  1  0
M  END
>  <Title>  (1063) 
idABOWgen7

$$$$

     RDKit          2D

 31 33  0  0  0  0  0  0  0  0999 V2000
    4.8705    0.0000    0.0000 C   0  0  0  0  0  0  0  0  0  0  0  0
    3.3705    0.0000    0.0000 C   0  0  0  0  0  0  0  0  0  0  0  0
    3.0367   -1.4624    0.0000 C   0  0  0  0  0  0  0  0  0  0  0  0
    2.1015   -2.6351    0.0000 C   0  0  0  0  0  0  0  0  0  0  0  0
    0.7500   -3.2860    0.0000 C   0  0  0  0  0  0  0  0  0  0  0  0
   -0.7500   -3.2860    0.0000 C   0  0  0  0  0  0  0  0  0  0  0  0
   -2.1015   -2.6351    0.0000 C   0  0  0  0  0  0  0  0  0  0  0  0
   -3.0367   -1.4624    0.0000 C   0  0  0  0  0  0  0  0  0  0  0  0
   -3.3705    0.0000    0.0000 C   0  0  0  0  0  0  0  0  0  0  0  0
   -3.0367    1.4624    0.0000 C   0  0  0  0  0  0  0  0  0  0  0  0
   -2.1015    2.6351    0.0000 C   0  0  0  0  0  0  0  0  0  0  0  0
   -0.7500    3.2860    0.0000 C   0  0  0  0  0  0  0  0  0  0  0  0
    0.7500    3.2860    0.0000 C   0  0  0  0  0  0  0  0  0  0  0  0
    1.0838    4.7484    0.0000 C   0  0  0  0  0  0  0  0  0  0  0  0
   -0.0158    5.7686    0.0000 O   0  0  0  0  0  0  0  0  0  0  0  0
    2.5171    5.1905    0.0000 N   0  0  0  0  0  0  0  0  0  0  0  0
    2.8509    6.6529    0.0000 C   0  0  0  0  0  0  0  0  0  0  0  0
    1.8640    7.7825    0.0000 N   0  0  0  0  0  0  0  0  0  0  0  0
    2.6334    9.0702    0.0000 C   0  0  0  0  0  0  0  0  0  0  0  0
    4.0958    8.7364    0.0000 N   0  0  0  0  0  0  0  0  0  0  0  0
    4.2302    7.2424    0.0000 N   0  0  0  0  0  0  0  0  0  0  0  0
    5.5179    6.4731    0.0000 C   0  0  0  0  0  0  0  0  0  0  0  0
    5.4954    4.9732    0.0000 C   0  0  0  0  0  0  0  0  0  0  0  0
    6.7831    4.2039    0.0000 C   0  0  0  0  0  0  0  0  0  0  0  0
    8.0932    4.9344    0.0000 C   0  0  0  0  0  0  0  0  0  0  0  0
    9.3809    4.1650    0.0000 C   0  0  0  0  0  0  0  0  0  0  0  0
    8.1157    6.4342    0.0000 C   0  0  0  0  0  0  0  0  0  0  0  0
    9.4258    7.1647    0.0000 O   0  0  0  0  0  0  0  0  0  0  0  0
    6.8280    7.2036    0.0000 N   0  0  0  0  0  0  0  0  0  0  0  0
    2.1015    2.6351    0.0000 C   0  0  0  0  0  0  0  0  0  0  0  0
    3.0367    1.4624    0.0000 C   0  0  0  0  0  0  0  0  0  0  0  0
  1  2  1  0
  2  3  2  0
  3  4  1  0
  4  5  2  0
  5  6  1  0
  6  7  2  0
  7  8  1  0
  8  9  2  0
  9 10  1  0
 10 11  2  0
 11 12  1  0
 12 13  2  0
 13 14  1  0
 14 15  2  0
 14 16  1  0
 16 17  1  0
 17 18  2  0
 18 19  1  0
 19 20  2  0
 20 21  1  0
 21 22  1  0
 22 23  2  0
 23 24  1  0
 24 25  2  0
 25 26  1  0
 25 27  1  0
 27 28  2  0
 27 29  1  0
 13 30  1  0
 30 31  2  0
 31  2  1  0
 21 17  1  0
 29 22  1  0
M  END
>  <Title>  (1064) 
idABOXgen7

$$$$

     RDKit          2D

 21 21  0  0  0  0  0  0  0  0999 V2000
    5.8191    0.0000    0.0000 C   0  0  0  0  0  0  0  0  0  0  0  0
    4.3191    0.0000    0.0000 C   0  0  0  0  0  0  0  0  0  0  0  0
    4.0586   -1.4772    0.0000 C   0  0  0  0  0  0  0  0  0  0  0  0
    3.3086   -2.7762    0.0000 C   0  0  0  0  0  0  0  0  0  0  0  0
    2.1595   -3.7404    0.0000 C   0  0  0  0  0  0  0  0  0  0  0  0
    0.7500   -4.2535    0.0000 C   0  0  0  0  0  0  0  0  0  0  0  0
   -0.7500   -4.2535    0.0000 C   0  0  0  0  0  0  0  0  0  0  0  0
   -2.1595   -3.7404    0.0000 C   0  0  0  0  0  0  0  0  0  0  0  0
   -3.3086   -2.7762    0.0000 C   0  0  0  0  0  0  0  0  0  0  0  0
   -4.0586   -1.4772    0.0000 C   0  0  0  0  0  0  0  0  0  0  0  0
   -4.3191    0.0000    0.0000 C   0  0  0  0  0  0  0  0  0  0  0  0
   -4.0586    1.4772    0.0000 C   0  0  0  0  0  0  0  0  0  0  0  0
   -3.3086    2.7762    0.0000 C   0  0  0  0  0  0  0  0  0  0  0  0
   -2.1595    3.7404    0.0000 C   0  0  0  0  0  0  0  0  0  0  0  0
   -0.7500    4.2535    0.0000 C   0  0  0  0  0  0  0  0  0  0  0  0
    0.7500    4.2535    0.0000 C   0  0  0  0  0  0  0  0  0  0  0  0
    2.1595    3.7404    0.0000 C   0  0  0  0  0  0  0  0  0  0  0  0
    2.9095    5.0395    0.0000 C   0  0  0  0  0  0  0  0  0  0  0  0
    3.3086    2.7762    0.0000 C   0  0  0  0  0  0  0  0  0  0  0  0
    4.4577    3.7404    0.0000 O   0  0  0  0  0  0  0  0  0  0  0  0
    4.0586    1.4772    0.0000 N   0  0  0  0  0  0  0  0  0  0  0  0
  1  2  1  0
  2  3  2  0
  3  4  1  0
  4  5  2  0
  5  6  1  0
  6  7  2  0
  7  8  1  0
  8  9  2  0
  9 10  1  0
 10 11  2  0
 11 12  1  0
 12 13  2  0
 13 14  1  0
 14 15  2  0
 15 16  1  0
 16 17  2  0
 17 18  1  0
 17 19  1  0
 19 20  2  0
 19 21  1  0
 21  2  1  0
M  END
>  <Title>  (1065) 
idABOYgen7

$$$$

     RDKit          2D

 44 49  0  0  0  0  0  0  0  0999 V2000
    3.7500   -1.2990    0.0000 C   0  0  0  0  0  0  0  0  0  0  0  0
    3.0000    0.0000    0.0000 O   0  0  0  0  0  0  0  0  0  0  0  0
    1.5000    0.0000    0.0000 C   0  0  0  0  0  0  0  0  0  0  0  0
    0.7500   -1.2990    0.0000 C   0  0  0  0  0  0  0  0  0  0  0  0
   -0.7500   -1.2990    0.0000 C   0  0  0  0  0  0  0  0  0  0  0  0
   -1.5000    0.0000    0.0000 C   0  0  0  0  0  0  0  0  0  0  0  0
   -3.0000    0.0000    0.0000 C   0  0  0  0  0  0  0  0  0  0  0  0
   -3.7500   -1.2990    0.0000 O   0  0  0  0  0  0  0  0  0  0  0  0
   -3.7500    1.2990    0.0000 N   0  0  0  0  0  0  0  0  0  0  0  0
   -5.2500    1.2990    0.0000 C   0  0  0  0  0  0  0  0  0  0  0  0
   -6.1317    0.0855    0.0000 N   0  0  0  0  0  0  0  0  0  0  0  0
   -7.5583    0.5490    0.0000 N   0  0  0  0  0  0  0  0  0  0  0  0
   -7.5583    2.0490    0.0000 N   0  0  0  0  0  0  0  0  0  0  0  0
   -6.1317    2.5126    0.0000 N   0  0  0  0  0  0  0  0  0  0  0  0
   -5.6682    3.9391    0.0000 C   0  0  0  0  0  0  0  0  0  0  0  0
   -4.2009    4.2510    0.0000 C   0  0  0  0  0  0  0  0  0  0  0  0
   -3.7374    5.6776    0.0000 C   0  0  0  0  0  0  0  0  0  0  0  0
   -4.7411    6.7923    0.0000 C   0  0  0  0  0  0  0  0  0  0  0  0
   -4.2776    8.2189    0.0000 C   0  0  0  0  0  0  0  0  0  0  0  0
   -5.1593    9.4324    0.0000 N   0  0  0  0  0  0  0  0  0  0  0  0
   -4.2776   10.6460    0.0000 N   0  0  0  0  0  0  0  0  0  0  0  0
   -2.8510   10.1824    0.0000 N   0  0  0  0  0  0  0  0  0  0  0  0
   -2.8510    8.6824    0.0000 N   0  0  0  0  0  0  0  0  0  0  0  0
   -1.6375    7.8008    0.0000 C   0  0  0  0  0  0  0  0  0  0  0  0
   -1.7943    6.3090    0.0000 C   0  0  0  0  0  0  0  0  0  0  0  0
   -0.5807    5.4273    0.0000 C   0  0  0  0  0  0  0  0  0  0  0  0
    0.7896    6.0374    0.0000 C   0  0  0  0  0  0  0  0  0  0  0  0
    0.9464    7.5292    0.0000 C   0  0  0  0  0  0  0  0  0  0  0  0
   -0.2671    8.4109    0.0000 C   0  0  0  0  0  0  0  0  0  0  0  0
   -6.2083    6.4805    0.0000 C   0  0  0  0  0  0  0  0  0  0  0  0
   -6.6718    5.0539    0.0000 C   0  0  0  0  0  0  0  0  0  0  0  0
   -8.1391    4.7420    0.0000 C   0  0  0  0  0  0  0  0  0  0  0  0
   -9.1428    5.8567    0.0000 C   0  0  0  0  0  0  0  0  0  0  0  0
  -10.6100    5.5448    0.0000 C   0  0  0  0  0  0  0  0  0  0  0  0
  -11.0735    4.1183    0.0000 C   0  0  0  0  0  0  0  0  0  0  0  0
  -12.5407    3.8064    0.0000 C   0  0  0  0  0  0  0  0  0  0  0  0
  -13.0043    2.3798    0.0000 O   0  0  0  0  0  0  0  0  0  0  0  0
  -13.5444    4.9211    0.0000 N   0  0  0  0  0  0  0  0  0  0  0  0
  -15.0117    4.6092    0.0000 O   0  0  0  0  0  0  0  0  0  0  0  0
  -10.0698    3.0035    0.0000 C   0  0  0  0  0  0  0  0  0  0  0  0
   -8.6026    3.3154    0.0000 C   0  0  0  0  0  0  0  0  0  0  0  0
   -0.7500    1.2990    0.0000 C   0  0  0  0  0  0  0  0  0  0  0  0
   -1.5000    2.5981    0.0000 O   0  0  0  0  0  0  0  0  0  0  0  0
    0.7500    1.2990    0.0000 N   0  0  0  0  0  0  0  0  0  0  0  0
  1  2  1  0
  2  3  1  0
  3  4  2  0
  4  5  1  0
  5  6  2  0
  6  7  1  0
  7  8  2  0
  7  9  1  0
  9 10  1  0
 10 11  2  0
 11 12  1  0
 12 13  2  0
 13 14  1  0
 14 15  1  0
 15 16  2  0
 16 17  1  0
 17 18  2  0
 18 19  1  0
 19 20  2  0
 20 21  1  0
 21 22  2  0
 22 23  1  0
 23 24  1  0
 24 25  2  0
 25 26  1  0
 26 27  2  0
 27 28  1  0
 28 29  2  0
 18 30  1  0
 30 31  2  0
 31 32  1  0
 32 33  2  0
 33 34  1  0
 34 35  2  0
 35 36  1  0
 36 37  2  0
 36 38  1  0
 38 39  1  0
 35 40  1  0
 40 41  1  0
  6 42  1  0
 42 43  2  0
 42 44  1  0
 44  3  1  0
 14 10  1  0
 31 15  1  0
 41 32  1  0
 23 19  1  0
 29 24  1  0
M  END
>  <Title>  (1066) 
idABOZgen7

$$$$

     RDKit          2D

 11 12  0  0  0  0  0  0  0  0999 V2000
   -1.7979    5.5335    0.0000 O   0  0  0  0  0  0  0  0  0  0  0  0
   -1.3344    4.1069    0.0000 C   0  0  0  0  0  0  0  0  0  0  0  0
    0.1520    3.9056    0.0000 C   0  0  0  0  0  0  0  0  0  0  0  0
    0.9214    2.6179    0.0000 C   0  0  0  0  0  0  0  0  0  0  0  0
    0.3943    1.2135    0.0000 C   0  0  0  0  0  0  0  0  0  0  0  0
    1.2760    0.0000    0.0000 C   0  0  0  0  0  0  0  0  0  0  0  0
    0.3943   -1.2135    0.0000 C   0  0  0  0  0  0  0  0  0  0  0  0
   -1.0323   -0.7500    0.0000 C   0  0  0  0  0  0  0  0  0  0  0  0
   -1.0323    0.7500    0.0000 C   0  0  0  0  0  0  0  0  0  0  0  0
   -2.2841    1.5763    0.0000 C   0  0  0  0  0  0  0  0  0  0  0  0
   -2.4186    3.0703    0.0000 C   0  0  0  0  0  0  0  0  0  0  0  0
  1  2  1  0
  2  3  2  0
  3  4  1  0
  4  5  2  0
  5  6  1  0
  6  7  2  0
  7  8  1  0
  8  9  2  0
  9 10  1  0
 10 11  2  0
 11  2  1  0
  9  5  1  0
M  END
>  <Title>  (1067) 
idABPAgen7

$$$$

     RDKit          2D

 46 51  0  0  0  0  0  0  0  0999 V2000
    3.0000    0.0000    0.0000 C   0  0  0  0  0  0  0  0  0  0  0  0
    1.5000    0.0000    0.0000 C   0  0  0  0  0  0  0  0  0  0  0  0
    0.7500   -1.2990    0.0000 C   0  0  0  0  0  0  0  0  0  0  0  0
   -0.7500   -1.2990    0.0000 C   0  0  0  0  0  0  0  0  0  0  0  0
   -1.5000    0.0000    0.0000 C   0  0  0  0  0  0  0  0  0  0  0  0
   -3.0000    0.0000    0.0000 C   0  0  0  0  0  0  0  0  0  0  0  0
   -3.8817   -1.2135    0.0000 N   0  0  0  0  0  0  0  0  0  0  0  0
   -5.3083   -0.7500    0.0000 N   0  0  0  0  0  0  0  0  0  0  0  0
   -5.3083    0.7500    0.0000 N   0  0  0  0  0  0  0  0  0  0  0  0
   -3.8817    1.2135    0.0000 N   0  0  0  0  0  0  0  0  0  0  0  0
   -3.4182    2.6401    0.0000 C   0  0  0  0  0  0  0  0  0  0  0  0
   -1.9509    2.9520    0.0000 C   0  0  0  0  0  0  0  0  0  0  0  0
   -1.4874    4.3786    0.0000 C   0  0  0  0  0  0  0  0  0  0  0  0
   -2.4911    5.4933    0.0000 C   0  0  0  0  0  0  0  0  0  0  0  0
   -2.0276    6.9199    0.0000 C   0  0  0  0  0  0  0  0  0  0  0  0
   -0.5604    7.2317    0.0000 C   0  0  0  0  0  0  0  0  0  0  0  0
   -0.0968    8.6583    0.0000 C   0  0  0  0  0  0  0  0  0  0  0  0
   -1.1005    9.7730    0.0000 C   0  0  0  0  0  0  0  0  0  0  0  0
   -2.5677    9.4612    0.0000 C   0  0  0  0  0  0  0  0  0  0  0  0
   -3.0313    8.0346    0.0000 C   0  0  0  0  0  0  0  0  0  0  0  0
   -3.9583    5.1814    0.0000 C   0  0  0  0  0  0  0  0  0  0  0  0
   -4.4218    3.7548    0.0000 C   0  0  0  0  0  0  0  0  0  0  0  0
   -5.8891    3.4430    0.0000 C   0  0  0  0  0  0  0  0  0  0  0  0
   -6.8928    4.5577    0.0000 C   0  0  0  0  0  0  0  0  0  0  0  0
   -8.3600    4.2458    0.0000 C   0  0  0  0  0  0  0  0  0  0  0  0
   -8.8235    2.8192    0.0000 C   0  0  0  0  0  0  0  0  0  0  0  0
  -10.2907    2.5074    0.0000 C   0  0  0  0  0  0  0  0  0  0  0  0
  -10.7543    1.0808    0.0000 O   0  0  0  0  0  0  0  0  0  0  0  0
  -11.2944    3.6221    0.0000 N   0  0  0  0  0  0  0  0  0  0  0  0
  -12.7617    3.3102    0.0000 C   0  0  0  0  0  0  0  0  0  0  0  0
  -13.2252    1.8836    0.0000 O   0  0  0  0  0  0  0  0  0  0  0  0
  -13.7653    4.4249    0.0000 N   0  0  0  0  0  0  0  0  0  0  0  0
  -15.2326    4.1131    0.0000 C   0  0  0  0  0  0  0  0  0  0  0  0
  -16.2363    5.2278    0.0000 C   0  0  0  0  0  0  0  0  0  0  0  0
  -15.7727    6.6544    0.0000 O   0  0  0  0  0  0  0  0  0  0  0  0
  -17.7035    4.9159    0.0000 N   0  0  0  0  0  0  0  0  0  0  0  0
  -18.7072    6.0306    0.0000 C   0  0  0  0  0  0  0  0  0  0  0  0
  -18.2437    7.4572    0.0000 C   0  0  0  0  0  0  0  0  0  0  0  0
  -19.2474    8.5719    0.0000 C   0  0  0  0  0  0  0  0  0  0  0  0
  -20.7146    8.2601    0.0000 C   0  0  0  0  0  0  0  0  0  0  0  0
  -21.1781    6.8335    0.0000 C   0  0  0  0  0  0  0  0  0  0  0  0
  -20.1744    5.7188    0.0000 C   0  0  0  0  0  0  0  0  0  0  0  0
   -7.8198    1.7045    0.0000 C   0  0  0  0  0  0  0  0  0  0  0  0
   -6.3526    2.0164    0.0000 C   0  0  0  0  0  0  0  0  0  0  0  0
   -0.7500    1.2990    0.0000 C   0  0  0  0  0  0  0  0  0  0  0  0
    0.7500    1.2990    0.0000 C   0  0  0  0  0  0  0  0  0  0  0  0
  1  2  1  0
  2  3  2  0
  3  4  1  0
  4  5  2  0
  5  6  1  0
  6  7  2  0
  7  8  1  0
  8  9  2  0
  9 10  1  0
 10 11  1  0
 11 12  2  0
 12 13  1  0
 13 14  2  0
 14 15  1  0
 15 16  2  0
 16 17  1  0
 17 18  2  0
 18 19  1  0
 19 20  2  0
 14 21  1  0
 21 22  2  0
 22 23  1  0
 23 24  2  0
 24 25  1  0
 25 26  2  0
 26 27  1  0
 27 28  2  0
 27 29  1  0
 29 30  1  0
 30 31  2  0
 30 32  1  0
 32 33  1  0
 33 34  1  0
 34 35  2  0
 34 36  1  0
 36 37  1  0
 37 38  2  0
 38 39  1  0
 39 40  2  0
 40 41  1  0
 41 42  2  0
 26 43  1  0
 43 44  2  0
  5 45  1  0
 45 46  2  0
 46  2  1  0
 10  6  1  0
 22 11  1  0
 44 23  1  0
 20 15  1  0
 42 37  1  0
M  END
>  <Title>  (1068) 
idABPBgen7

$$$$

     RDKit          2D

 28 28  0  0  0  0  0  0  0  0999 V2000
    7.9603    0.0000    0.0000 O   0  0  0  0  0  0  0  0  0  0  0  0
    6.4603    0.0000    0.0000 C   0  0  0  0  0  0  0  0  0  0  0  0
    6.2862    1.4899    0.0000 C   0  0  0  0  0  0  0  0  0  0  0  0
    5.7732    2.8994    0.0000 C   0  0  0  0  0  0  0  0  0  0  0  0
    4.9489    4.1526    0.0000 C   0  0  0  0  0  0  0  0  0  0  0  0
    3.8578    5.1820    0.0000 C   0  0  0  0  0  0  0  0  0  0  0  0
    2.5588    5.9320    0.0000 C   0  0  0  0  0  0  0  0  0  0  0  0
    1.1218    6.3622    0.0000 C   0  0  0  0  0  0  0  0  0  0  0  0
   -0.3756    6.4494    0.0000 C   0  0  0  0  0  0  0  0  0  0  0  0
   -1.8528    6.1889    0.0000 C   0  0  0  0  0  0  0  0  0  0  0  0
   -3.2302    5.5948    0.0000 C   0  0  0  0  0  0  0  0  0  0  0  0
   -4.4334    4.6991    0.0000 C   0  0  0  0  0  0  0  0  0  0  0  0
   -5.3975    3.5500    0.0000 C   0  0  0  0  0  0  0  0  0  0  0  0
   -6.0707    2.2096    0.0000 C   0  0  0  0  0  0  0  0  0  0  0  0
   -6.4167    0.7500    0.0000 C   0  0  0  0  0  0  0  0  0  0  0  0
   -6.4167   -0.7500    0.0000 C   0  0  0  0  0  0  0  0  0  0  0  0
   -6.0707   -2.2096    0.0000 C   0  0  0  0  0  0  0  0  0  0  0  0
   -5.3975   -3.5500    0.0000 C   0  0  0  0  0  0  0  0  0  0  0  0
   -4.4334   -4.6991    0.0000 C   0  0  0  0  0  0  0  0  0  0  0  0
   -3.2302   -5.5948    0.0000 C   0  0  0  0  0  0  0  0  0  0  0  0
   -1.8528   -6.1889    0.0000 C   0  0  0  0  0  0  0  0  0  0  0  0
   -0.3756   -6.4494    0.0000 C   0  0  0  0  0  0  0  0  0  0  0  0
    1.1218   -6.3622    0.0000 C   0  0  0  0  0  0  0  0  0  0  0  0
    2.5588   -5.9320    0.0000 C   0  0  0  0  0  0  0  0  0  0  0  0
    3.8578   -5.1820    0.0000 C   0  0  0  0  0  0  0  0  0  0  0  0
    4.9489   -4.1526    0.0000 C   0  0  0  0  0  0  0  0  0  0  0  0
    5.7732   -2.8994    0.0000 C   0  0  0  0  0  0  0  0  0  0  0  0
    6.2862   -1.4899    0.0000 C   0  0  0  0  0  0  0  0  0  0  0  0
  1  2  1  0
  2  3  2  0
  3  4  1  0
  4  5  2  0
  5  6  1  0
  6  7  2  0
  7  8  1  0
  8  9  2  0
  9 10  1  0
 10 11  2  0
 11 12  1  0
 12 13  2  0
 13 14  1  0
 14 15  2  0
 15 16  1  0
 16 17  2  0
 17 18  1  0
 18 19  2  0
 19 20  1  0
 20 21  2  0
 21 22  1  0
 22 23  2  0
 23 24  1  0
 24 25  2  0
 25 26  1  0
 26 27  2  0
 27 28  1  0
 28  2  1  0
M  END
>  <Title>  (1069) 
idABPCgen7

$$$$

     RDKit          2D

 28 28  0  0  0  0  0  0  0  0999 V2000
    7.9603    0.0000    0.0000 C   0  0  0  0  0  0  0  0  0  0  0  0
    6.4603    0.0000    0.0000 C   0  0  0  0  0  0  0  0  0  0  0  0
    6.2862    1.4899    0.0000 C   0  0  0  0  0  0  0  0  0  0  0  0
    5.7732    2.8994    0.0000 C   0  0  0  0  0  0  0  0  0  0  0  0
    4.9489    4.1526    0.0000 C   0  0  0  0  0  0  0  0  0  0  0  0
    3.8578    5.1820    0.0000 C   0  0  0  0  0  0  0  0  0  0  0  0
    2.5588    5.9320    0.0000 C   0  0  0  0  0  0  0  0  0  0  0  0
    1.1218    6.3622    0.0000 C   0  0  0  0  0  0  0  0  0  0  0  0
   -0.3756    6.4494    0.0000 C   0  0  0  0  0  0  0  0  0  0  0  0
   -1.8528    6.1889    0.0000 C   0  0  0  0  0  0  0  0  0  0  0  0
   -3.2302    5.5948    0.0000 C   0  0  0  0  0  0  0  0  0  0  0  0
   -4.4334    4.6991    0.0000 C   0  0  0  0  0  0  0  0  0  0  0  0
   -5.3975    3.5500    0.0000 C   0  0  0  0  0  0  0  0  0  0  0  0
   -6.0707    2.2096    0.0000 C   0  0  0  0  0  0  0  0  0  0  0  0
   -6.4167    0.7500    0.0000 C   0  0  0  0  0  0  0  0  0  0  0  0
   -6.4167   -0.7500    0.0000 C   0  0  0  0  0  0  0  0  0  0  0  0
   -6.0707   -2.2096    0.0000 C   0  0  0  0  0  0  0  0  0  0  0  0
   -5.3975   -3.5500    0.0000 C   0  0  0  0  0  0  0  0  0  0  0  0
   -4.4334   -4.6991    0.0000 C   0  0  0  0  0  0  0  0  0  0  0  0
   -3.2302   -5.5948    0.0000 C   0  0  0  0  0  0  0  0  0  0  0  0
   -1.8528   -6.1889    0.0000 C   0  0  0  0  0  0  0  0  0  0  0  0
   -0.3756   -6.4494    0.0000 C   0  0  0  0  0  0  0  0  0  0  0  0
    1.1218   -6.3622    0.0000 C   0  0  0  0  0  0  0  0  0  0  0  0
    2.5588   -5.9320    0.0000 C   0  0  0  0  0  0  0  0  0  0  0  0
    3.8578   -5.1820    0.0000 C   0  0  0  0  0  0  0  0  0  0  0  0
    4.9489   -4.1526    0.0000 C   0  0  0  0  0  0  0  0  0  0  0  0
    5.7732   -2.8994    0.0000 C   0  0  0  0  0  0  0  0  0  0  0  0
    6.2862   -1.4899    0.0000 C   0  0  0  0  0  0  0  0  0  0  0  0
  1  2  1  0
  2  3  2  0
  3  4  1  0
  4  5  2  0
  5  6  1  0
  6  7  2  0
  7  8  1  0
  8  9  2  0
  9 10  1  0
 10 11  2  0
 11 12  1  0
 12 13  2  0
 13 14  1  0
 14 15  2  0
 15 16  1  0
 16 17  2  0
 17 18  1  0
 18 19  2  0
 19 20  1  0
 20 21  2  0
 21 22  1  0
 22 23  2  0
 23 24  1  0
 24 25  2  0
 25 26  1  0
 26 27  1  0
 27 28  2  0
 28  2  1  0
M  END
>  <Title>  (1070) 
idABPDgen7

$$$$

     RDKit          2D

 11 12  0  0  0  0  0  0  0  0999 V2000
   -1.5000   -5.1962    0.0000 O   0  0  0  0  0  0  0  0  0  0  0  0
   -0.7500   -3.8971    0.0000 C   0  0  0  0  0  0  0  0  0  0  0  0
    0.7500   -3.8971    0.0000 C   0  0  0  0  0  0  0  0  0  0  0  0
    1.5000   -2.5981    0.0000 C   0  0  0  0  0  0  0  0  0  0  0  0
    0.7500   -1.2990    0.0000 C   0  0  0  0  0  0  0  0  0  0  0  0
    1.5000    0.0000    0.0000 C   0  0  0  0  0  0  0  0  0  0  0  0
    0.7500    1.2990    0.0000 C   0  0  0  0  0  0  0  0  0  0  0  0
   -0.7500    1.2990    0.0000 C   0  0  0  0  0  0  0  0  0  0  0  0
   -1.5000    0.0000    0.0000 C   0  0  0  0  0  0  0  0  0  0  0  0
   -0.7500   -1.2990    0.0000 C   0  0  0  0  0  0  0  0  0  0  0  0
   -1.5000   -2.5981    0.0000 C   0  0  0  0  0  0  0  0  0  0  0  0
  1  2  1  0
  2  3  2  0
  3  4  1  0
  4  5  2  0
  5  6  1  0
  6  7  2  0
  7  8  1  0
  8  9  2  0
  9 10  1  0
 10 11  2  0
 11  2  1  0
 10  5  1  0
M  END
>  <Title>  (1071) 
idABPEgen7

$$$$

     RDKit          2D

 45 51  0  0  0  0  0  0  0  0999 V2000
    6.7133   -5.6861    0.0000 C   0  0  0  0  0  0  0  0  0  0  0  0
    6.3142   -7.1320    0.0000 C   0  0  0  0  0  0  0  0  0  0  0  0
    4.8625   -7.5094    0.0000 C   0  0  0  0  0  0  0  0  0  0  0  0
    4.4634   -8.9554    0.0000 C   0  0  0  0  0  0  0  0  0  0  0  0
    5.5161  -10.0239    0.0000 C   0  0  0  0  0  0  0  0  0  0  0  0
    5.1170  -11.4699    0.0000 C   0  0  0  0  0  0  0  0  0  0  0  0
    6.0523  -12.6426    0.0000 C   0  0  0  0  0  0  0  0  0  0  0  0
    5.2259  -13.8945    0.0000 N   0  0  0  0  0  0  0  0  0  0  0  0
    3.7800  -13.4954    0.0000 N   0  0  0  0  0  0  0  0  0  0  0  0
    3.7127  -11.9969    0.0000 N   0  0  0  0  0  0  0  0  0  0  0  0
    2.4608  -11.1706    0.0000 C   0  0  0  0  0  0  0  0  0  0  0  0
    2.5505   -9.6733    0.0000 C   0  0  0  0  0  0  0  0  0  0  0  0
    1.2987   -8.8469    0.0000 C   0  0  0  0  0  0  0  0  0  0  0  0
   -0.0429   -9.5179    0.0000 C   0  0  0  0  0  0  0  0  0  0  0  0
   -1.2947   -8.6916    0.0000 C   0  0  0  0  0  0  0  0  0  0  0  0
   -2.6363   -9.3625    0.0000 O   0  0  0  0  0  0  0  0  0  0  0  0
   -1.2050   -7.1942    0.0000 N   0  0  0  0  0  0  0  0  0  0  0  0
   -2.4569   -6.3679    0.0000 C   0  0  0  0  0  0  0  0  0  0  0  0
   -3.8613   -6.8950    0.0000 N   0  0  0  0  0  0  0  0  0  0  0  0
   -4.7965   -5.7222    0.0000 N   0  0  0  0  0  0  0  0  0  0  0  0
   -3.9701   -4.4704    0.0000 N   0  0  0  0  0  0  0  0  0  0  0  0
   -2.5242   -4.8694    0.0000 N   0  0  0  0  0  0  0  0  0  0  0  0
   -1.3515   -3.9342    0.0000 C   0  0  0  0  0  0  0  0  0  0  0  0
   -0.0000   -4.5850    0.0000 C   0  0  0  0  0  0  0  0  0  0  0  0
    1.3515   -3.9342    0.0000 C   0  0  0  0  0  0  0  0  0  0  0  0
    1.6852   -2.4718    0.0000 C   0  0  0  0  0  0  0  0  0  0  0  0
    3.1476   -2.1380    0.0000 C   0  0  0  0  0  0  0  0  0  0  0  0
    3.7372   -0.7587    0.0000 N   0  0  0  0  0  0  0  0  0  0  0  0
    5.2311   -0.8932    0.0000 N   0  0  0  0  0  0  0  0  0  0  0  0
    5.5649   -2.3556    0.0000 N   0  0  0  0  0  0  0  0  0  0  0  0
    4.2772   -3.1249    0.0000 N   0  0  0  0  0  0  0  0  0  0  0  0
    0.7500   -1.2990    0.0000 C   0  0  0  0  0  0  0  0  0  0  0  0
    1.5000    0.0000    0.0000 N   0  0  0  0  0  0  0  0  0  0  0  0
    0.7500    1.2990    0.0000 N   0  0  0  0  0  0  0  0  0  0  0  0
   -0.7500    1.2990    0.0000 N   0  0  0  0  0  0  0  0  0  0  0  0
   -1.5000    0.0000    0.0000 N   0  0  0  0  0  0  0  0  0  0  0  0
   -0.7500   -1.2990    0.0000 C   0  0  0  0  0  0  0  0  0  0  0  0
   -1.6852   -2.4718    0.0000 C   0  0  0  0  0  0  0  0  0  0  0  0
   -3.1476   -2.1380    0.0000 O   0  0  0  0  0  0  0  0  0  0  0  0
   -0.1326  -11.0152    0.0000 C   0  0  0  0  0  0  0  0  0  0  0  0
   -1.4742  -11.6862    0.0000 O   0  0  0  0  0  0  0  0  0  0  0  0
    1.1193  -11.8416    0.0000 N   0  0  0  0  0  0  0  0  0  0  0  0
    6.9678   -9.6466    0.0000 C   0  0  0  0  0  0  0  0  0  0  0  0
    8.0205  -10.7151    0.0000 O   0  0  0  0  0  0  0  0  0  0  0  0
    7.3669   -8.2006    0.0000 N   0  0  0  0  0  0  0  0  0  0  0  0
  1  2  1  0
  2  3  2  0
  3  4  1  0
  4  5  2  0
  5  6  1  0
  6  7  2  0
  7  8  1  0
  8  9  2  0
  9 10  1  0
 10 11  1  0
 11 12  2  0
 12 13  1  0
 13 14  2  0
 14 15  1  0
 15 16  2  0
 15 17  1  0
 17 18  1  0
 18 19  2  0
 19 20  1  0
 20 21  2  0
 21 22  1  0
 22 23  1  0
 23 24  2  0
 24 25  1  0
 25 26  2  0
 26 27  1  0
 27 28  2  0
 28 29  1  0
 29 30  2  0
 30 31  1  0
 26 32  1  0
 32 33  2  0
 33 34  1  0
 34 35  2  0
 35 36  1  0
 36 37  2  0
 37 38  1  0
 38 39  2  0
 14 40  1  0
 40 41  2  0
 40 42  1  0
  5 43  1  0
 43 44  2  0
 43 45  1  0
 45  2  1  0
 10  6  1  0
 42 11  1  0
 22 18  1  0
 38 23  1  0
 31 27  1  0
 37 32  1  0
M  END
>  <Title>  (1072) 
idABPFgen7

$$$$

     RDKit          2D

 45 51  0  0  0  0  0  0  0  0999 V2000
    3.0000    0.0000    0.0000 C   0  0  0  0  0  0  0  0  0  0  0  0
    1.5000    0.0000    0.0000 C   0  0  0  0  0  0  0  0  0  0  0  0
    0.7500   -1.2990    0.0000 C   0  0  0  0  0  0  0  0  0  0  0  0
   -0.7500   -1.2990    0.0000 C   0  0  0  0  0  0  0  0  0  0  0  0
   -1.5000    0.0000    0.0000 C   0  0  0  0  0  0  0  0  0  0  0  0
   -3.0000    0.0000    0.0000 C   0  0  0  0  0  0  0  0  0  0  0  0
   -3.7500   -1.2990    0.0000 O   0  0  0  0  0  0  0  0  0  0  0  0
   -3.7500    1.2990    0.0000 N   0  0  0  0  0  0  0  0  0  0  0  0
   -5.2500    1.2990    0.0000 C   0  0  0  0  0  0  0  0  0  0  0  0
   -6.1317    0.0855    0.0000 N   0  0  0  0  0  0  0  0  0  0  0  0
   -7.5583    0.5490    0.0000 N   0  0  0  0  0  0  0  0  0  0  0  0
   -7.5583    2.0490    0.0000 N   0  0  0  0  0  0  0  0  0  0  0  0
   -6.1317    2.5126    0.0000 N   0  0  0  0  0  0  0  0  0  0  0  0
   -5.6682    3.9391    0.0000 C   0  0  0  0  0  0  0  0  0  0  0  0
   -4.2009    4.2510    0.0000 C   0  0  0  0  0  0  0  0  0  0  0  0
   -3.7374    5.6776    0.0000 C   0  0  0  0  0  0  0  0  0  0  0  0
   -4.7411    6.7923    0.0000 C   0  0  0  0  0  0  0  0  0  0  0  0
   -4.2776    8.2189    0.0000 C   0  0  0  0  0  0  0  0  0  0  0  0
   -2.8104    8.5308    0.0000 C   0  0  0  0  0  0  0  0  0  0  0  0
   -2.3468    9.9574    0.0000 C   0  0  0  0  0  0  0  0  0  0  0  0
   -3.3505   11.0721    0.0000 C   0  0  0  0  0  0  0  0  0  0  0  0
   -4.8177   10.7602    0.0000 C   0  0  0  0  0  0  0  0  0  0  0  0
   -5.2813    9.3336    0.0000 C   0  0  0  0  0  0  0  0  0  0  0  0
   -6.2083    6.4805    0.0000 C   0  0  0  0  0  0  0  0  0  0  0  0
   -6.6718    5.0539    0.0000 C   0  0  0  0  0  0  0  0  0  0  0  0
   -8.1391    4.7420    0.0000 C   0  0  0  0  0  0  0  0  0  0  0  0
   -8.7492    3.3717    0.0000 N   0  0  0  0  0  0  0  0  0  0  0  0
  -10.2410    3.5285    0.0000 N   0  0  0  0  0  0  0  0  0  0  0  0
  -10.5528    4.9957    0.0000 N   0  0  0  0  0  0  0  0  0  0  0  0
   -9.2538    5.7457    0.0000 N   0  0  0  0  0  0  0  0  0  0  0  0
   -9.0970    7.2375    0.0000 C   0  0  0  0  0  0  0  0  0  0  0  0
   -7.7980    7.9875    0.0000 C   0  0  0  0  0  0  0  0  0  0  0  0
   -8.1098    9.4547    0.0000 C   0  0  0  0  0  0  0  0  0  0  0  0
   -9.6016    9.6115    0.0000 C   0  0  0  0  0  0  0  0  0  0  0  0
  -10.3516   10.9105    0.0000 C   0  0  0  0  0  0  0  0  0  0  0  0
   -9.6016   12.2096    0.0000 C   0  0  0  0  0  0  0  0  0  0  0  0
  -10.3516   13.5086    0.0000 C   0  0  0  0  0  0  0  0  0  0  0  0
  -11.8516   13.5086    0.0000 C   0  0  0  0  0  0  0  0  0  0  0  0
  -12.6016   12.2096    0.0000 C   0  0  0  0  0  0  0  0  0  0  0  0
  -11.8516   10.9105    0.0000 C   0  0  0  0  0  0  0  0  0  0  0  0
  -10.2117    8.2412    0.0000 C   0  0  0  0  0  0  0  0  0  0  0  0
  -11.6789    7.9293    0.0000 O   0  0  0  0  0  0  0  0  0  0  0  0
   -0.7500    1.2990    0.0000 N   0  0  0  0  0  0  0  0  0  0  0  0
    0.7500    1.2990    0.0000 C   0  0  0  0  0  0  0  0  0  0  0  0
    1.5000    2.5981    0.0000 O   0  0  0  0  0  0  0  0  0  0  0  0
  1  2  1  0
  2  3  2  0
  3  4  1  0
  4  5  2  0
  5  6  1  0
  6  7  2  0
  6  8  1  0
  8  9  1  0
  9 10  2  0
 10 11  1  0
 11 12  2  0
 12 13  1  0
 13 14  1  0
 14 15  2  0
 15 16  1  0
 16 17  2  0
 17 18  1  0
 18 19  2  0
 19 20  1  0
 20 21  2  0
 21 22  1  0
 22 23  2  0
 17 24  1  0
 24 25  2  0
 25 26  1  0
 26 27  2  0
 27 28  1  0
 28 29  2  0
 29 30  1  0
 30 31  1  0
 31 32  2  0
 32 33  1  0
 33 34  2  0
 34 35  1  0
 35 36  2  0
 36 37  1  0
 37 38  2  0
 38 39  1  0
 39 40  2  0
 34 41  1  0
 41 42  2  0
  5 43  1  0
 43 44  1  0
 44 45  2  0
 44  2  1  0
 13  9  1  0
 25 14  1  0
 30 26  1  0
 41 31  1  0
 23 18  1  0
 40 35  1  0
M  END
>  <Title>  (1073) 
idABPGgen7

$$$$

     RDKit          2D

 28 30  0  0  0  0  0  0  0  0999 V2000
    5.2500   -1.2990    0.0000 C   0  0  0  0  0  0  0  0  0  0  0  0
    3.7500   -1.2990    0.0000 C   0  0  0  0  0  0  0  0  0  0  0  0
    3.0000   -2.5981    0.0000 O   0  0  0  0  0  0  0  0  0  0  0  0
    3.0000    0.0000    0.0000 O   0  0  0  0  0  0  0  0  0  0  0  0
    1.5000    0.0000    0.0000 C   0  0  0  0  0  0  0  0  0  0  0  0
    0.7500   -1.2990    0.0000 C   0  0  0  0  0  0  0  0  0  0  0  0
   -0.7500   -1.2990    0.0000 C   0  0  0  0  0  0  0  0  0  0  0  0
   -1.5000    0.0000    0.0000 C   0  0  0  0  0  0  0  0  0  0  0  0
   -3.0000    0.0000    0.0000 C   0  0  0  0  0  0  0  0  0  0  0  0
   -3.7500   -1.2990    0.0000 O   0  0  0  0  0  0  0  0  0  0  0  0
   -3.7500    1.2990    0.0000 N   0  0  0  0  0  0  0  0  0  0  0  0
   -5.2500    1.2990    0.0000 C   0  0  0  0  0  0  0  0  0  0  0  0
   -6.1317    0.0855    0.0000 N   0  0  0  0  0  0  0  0  0  0  0  0
   -7.5583    0.5490    0.0000 N   0  0  0  0  0  0  0  0  0  0  0  0
   -7.5583    2.0490    0.0000 N   0  0  0  0  0  0  0  0  0  0  0  0
   -6.1317    2.5126    0.0000 N   0  0  0  0  0  0  0  0  0  0  0  0
   -5.6682    3.9391    0.0000 C   0  0  0  0  0  0  0  0  0  0  0  0
   -4.2009    4.2510    0.0000 C   0  0  0  0  0  0  0  0  0  0  0  0
   -3.7374    5.6776    0.0000 C   0  0  0  0  0  0  0  0  0  0  0  0
   -4.7411    6.7923    0.0000 C   0  0  0  0  0  0  0  0  0  0  0  0
   -4.2776    8.2189    0.0000 C   0  0  0  0  0  0  0  0  0  0  0  0
   -5.2813    9.3336    0.0000 O   0  0  0  0  0  0  0  0  0  0  0  0
   -2.8104    8.5308    0.0000 N   0  0  0  0  0  0  0  0  0  0  0  0
   -2.3468    9.9574    0.0000 O   0  0  0  0  0  0  0  0  0  0  0  0
   -6.2083    6.4805    0.0000 C   0  0  0  0  0  0  0  0  0  0  0  0
   -6.6718    5.0539    0.0000 C   0  0  0  0  0  0  0  0  0  0  0  0
   -0.7500    1.2990    0.0000 C   0  0  0  0  0  0  0  0  0  0  0  0
    0.7500    1.2990    0.0000 C   0  0  0  0  0  0  0  0  0  0  0  0
  1  2  1  0
  2  3  2  0
  2  4  1  0
  4  5  1  0
  5  6  2  0
  6  7  1  0
  7  8  2  0
  8  9  1  0
  9 10  2  0
  9 11  1  0
 11 12  1  0
 12 13  2  0
 13 14  1  0
 14 15  2  0
 15 16  1  0
 16 17  1  0
 17 18  2  0
 18 19  1  0
 19 20  2  0
 20 21  1  0
 21 22  2  0
 21 23  1  0
 23 24  1  0
 20 25  1  0
 25 26  1  0
  8 27  1  0
 27 28  2  0
 28  5  1  0
 16 12  1  0
 26 17  1  0
M  END
>  <Title>  (1074) 
idABPHgen7

$$$$

     RDKit          2D

 40 45  0  0  0  0  0  0  0  0999 V2000
    3.7500   -1.2990    0.0000 C   0  0  0  0  0  0  0  0  0  0  0  0
    3.0000    0.0000    0.0000 O   0  0  0  0  0  0  0  0  0  0  0  0
    1.5000    0.0000    0.0000 C   0  0  0  0  0  0  0  0  0  0  0  0
    0.7500   -1.2990    0.0000 C   0  0  0  0  0  0  0  0  0  0  0  0
   -0.7500   -1.2990    0.0000 C   0  0  0  0  0  0  0  0  0  0  0  0
   -1.5000    0.0000    0.0000 C   0  0  0  0  0  0  0  0  0  0  0  0
   -3.0000    0.0000    0.0000 C   0  0  0  0  0  0  0  0  0  0  0  0
   -3.7500   -1.2990    0.0000 O   0  0  0  0  0  0  0  0  0  0  0  0
   -3.7500    1.2990    0.0000 N   0  0  0  0  0  0  0  0  0  0  0  0
   -5.2500    1.2990    0.0000 C   0  0  0  0  0  0  0  0  0  0  0  0
   -6.1317    0.0855    0.0000 N   0  0  0  0  0  0  0  0  0  0  0  0
   -7.5583    0.5490    0.0000 N   0  0  0  0  0  0  0  0  0  0  0  0
   -7.5583    2.0490    0.0000 N   0  0  0  0  0  0  0  0  0  0  0  0
   -6.1317    2.5126    0.0000 N   0  0  0  0  0  0  0  0  0  0  0  0
   -5.6682    3.9391    0.0000 C   0  0  0  0  0  0  0  0  0  0  0  0
   -4.2009    4.2510    0.0000 C   0  0  0  0  0  0  0  0  0  0  0  0
   -3.7374    5.6776    0.0000 C   0  0  0  0  0  0  0  0  0  0  0  0
   -4.7411    6.7923    0.0000 C   0  0  0  0  0  0  0  0  0  0  0  0
   -4.2776    8.2189    0.0000 C   0  0  0  0  0  0  0  0  0  0  0  0
   -2.8104    8.5308    0.0000 C   0  0  0  0  0  0  0  0  0  0  0  0
   -2.3468    9.9574    0.0000 C   0  0  0  0  0  0  0  0  0  0  0  0
   -3.3505   11.0721    0.0000 C   0  0  0  0  0  0  0  0  0  0  0  0
   -2.8870   12.4987    0.0000 C   0  0  0  0  0  0  0  0  0  0  0  0
   -1.4198   12.8105    0.0000 C   0  0  0  0  0  0  0  0  0  0  0  0
   -0.9563   14.2371    0.0000 C   0  0  0  0  0  0  0  0  0  0  0  0
   -1.9599   15.3518    0.0000 C   0  0  0  0  0  0  0  0  0  0  0  0
   -3.4272   15.0400    0.0000 C   0  0  0  0  0  0  0  0  0  0  0  0
   -3.8907   13.6134    0.0000 C   0  0  0  0  0  0  0  0  0  0  0  0
   -4.8177   10.7602    0.0000 C   0  0  0  0  0  0  0  0  0  0  0  0
   -5.2813    9.3336    0.0000 C   0  0  0  0  0  0  0  0  0  0  0  0
   -6.7485    9.0218    0.0000 C   0  0  0  0  0  0  0  0  0  0  0  0
   -7.7522   10.1365    0.0000 C   0  0  0  0  0  0  0  0  0  0  0  0
   -9.2194    9.8246    0.0000 C   0  0  0  0  0  0  0  0  0  0  0  0
   -9.6829    8.3980    0.0000 C   0  0  0  0  0  0  0  0  0  0  0  0
   -8.6792    7.2833    0.0000 C   0  0  0  0  0  0  0  0  0  0  0  0
   -7.2120    7.5952    0.0000 C   0  0  0  0  0  0  0  0  0  0  0  0
   -6.2083    6.4805    0.0000 C   0  0  0  0  0  0  0  0  0  0  0  0
   -6.6718    5.0539    0.0000 C   0  0  0  0  0  0  0  0  0  0  0  0
   -0.7500    1.2990    0.0000 C   0  0  0  0  0  0  0  0  0  0  0  0
    0.7500    1.2990    0.0000 C   0  0  0  0  0  0  0  0  0  0  0  0
  1  2  1  0
  2  3  1  0
  3  4  2  0
  4  5  1  0
  5  6  2  0
  6  7  1  0
  7  8  2  0
  7  9  1  0
  9 10  1  0
 10 11  2  0
 11 12  1  0
 12 13  2  0
 13 14  1  0
 14 15  1  0
 15 16  2  0
 16 17  1  0
 17 18  2  0
 18 19  1  0
 19 20  2  0
 20 21  1  0
 21 22  2  0
 22 23  1  0
 23 24  2  0
 24 25  1  0
 25 26  2  0
 26 27  1  0
 27 28  2  0
 22 29  1  0
 29 30  2  0
 30 31  1  0
 31 32  2  0
 32 33  1  0
 33 34  2  0
 34 35  1  0
 35 36  2  0
 18 37  1  0
 37 38  2  0
  6 39  1  0
 39 40  2  0
 40  3  1  0
 14 10  1  0
 38 15  1  0
 30 19  1  0
 36 31  1  0
 28 23  1  0
M  END
>  <Title>  (1075) 
idABPIgen7

$$$$

     RDKit          2D

 20 20  0  0  0  0  0  0  0  0999 V2000
    7.8705    2.5981    0.0000 C   0  0  0  0  0  0  0  0  0  0  0  0
    7.1205    1.2990    0.0000 C   0  0  0  0  0  0  0  0  0  0  0  0
    7.8705    0.0000    0.0000 C   0  0  0  0  0  0  0  0  0  0  0  0
    5.6205    1.2990    0.0000 C   0  0  0  0  0  0  0  0  0  0  0  0
    4.8705    0.0000    0.0000 C   0  0  0  0  0  0  0  0  0  0  0  0
    5.6205   -1.2990    0.0000 C   0  0  0  0  0  0  0  0  0  0  0  0
    3.3705    0.0000    0.0000 C   0  0  0  0  0  0  0  0  0  0  0  0
    3.0367   -1.4624    0.0000 C   0  0  0  0  0  0  0  0  0  0  0  0
    2.1015   -2.6351    0.0000 C   0  0  0  0  0  0  0  0  0  0  0  0
    0.7500   -3.2860    0.0000 C   0  0  0  0  0  0  0  0  0  0  0  0
   -0.7500   -3.2860    0.0000 C   0  0  0  0  0  0  0  0  0  0  0  0
   -2.1015   -2.6351    0.0000 C   0  0  0  0  0  0  0  0  0  0  0  0
   -3.0367   -1.4624    0.0000 C   0  0  0  0  0  0  0  0  0  0  0  0
   -3.3705    0.0000    0.0000 C   0  0  0  0  0  0  0  0  0  0  0  0
   -3.0367    1.4624    0.0000 C   0  0  0  0  0  0  0  0  0  0  0  0
   -2.1015    2.6351    0.0000 C   0  0  0  0  0  0  0  0  0  0  0  0
   -0.7500    3.2860    0.0000 C   0  0  0  0  0  0  0  0  0  0  0  0
    0.7500    3.2860    0.0000 C   0  0  0  0  0  0  0  0  0  0  0  0
    2.1015    2.6351    0.0000 C   0  0  0  0  0  0  0  0  0  0  0  0
    3.0367    1.4624    0.0000 C   0  0  0  0  0  0  0  0  0  0  0  0
  1  2  1  0
  2  3  1  0
  2  4  1  0
  4  5  1  0
  5  6  1  0
  5  7  1  0
  7  8  1  0
  8  9  2  0
  9 10  1  0
 10 11  2  0
 11 12  1  0
 12 13  2  0
 13 14  1  0
 14 15  2  0
 15 16  1  0
 16 17  1  0
 17 18  1  0
 18 19  1  0
 19 20  1  0
 20  7  1  0
M  END
>  <Title>  (1076) 
idABPJgen7

$$$$

     RDKit          2D

  8  8  0  0  0  0  0  0  0  0999 V2000
    3.7500   -1.2990    0.0000 C   0  0  0  0  0  0  0  0  0  0  0  0
    3.0000    0.0000    0.0000 O   0  0  0  0  0  0  0  0  0  0  0  0
    1.5000    0.0000    0.0000 C   0  0  0  0  0  0  0  0  0  0  0  0
    0.7500   -1.2990    0.0000 C   0  0  0  0  0  0  0  0  0  0  0  0
   -0.7500   -1.2990    0.0000 C   0  0  0  0  0  0  0  0  0  0  0  0
   -1.5000    0.0000    0.0000 C   0  0  0  0  0  0  0  0  0  0  0  0
   -0.7500    1.2990    0.0000 N   0  0  0  0  0  0  0  0  0  0  0  0
    0.7500    1.2990    0.0000 N   0  0  0  0  0  0  0  0  0  0  0  0
  1  2  1  0
  2  3  1  0
  3  4  2  0
  4  5  1  0
  5  6  2  0
  6  7  1  0
  7  8  2  0
  8  3  1  0
M  END
>  <Title>  (1077) 
idABPKgen7

$$$$

     RDKit          2D

 24 27  0  0  0  0  0  0  0  0999 V2000
    3.0000    0.0000    0.0000 C   0  0  0  0  0  0  0  0  0  0  0  0
    1.5000    0.0000    0.0000 C   0  0  0  0  0  0  0  0  0  0  0  0
    0.7500   -1.2990    0.0000 C   0  0  0  0  0  0  0  0  0  0  0  0
   -0.7500   -1.2990    0.0000 C   0  0  0  0  0  0  0  0  0  0  0  0
   -1.5000    0.0000    0.0000 C   0  0  0  0  0  0  0  0  0  0  0  0
   -3.0000    0.0000    0.0000 C   0  0  0  0  0  0  0  0  0  0  0  0
   -3.8817   -1.2135    0.0000 N   0  0  0  0  0  0  0  0  0  0  0  0
   -5.3083   -0.7500    0.0000 N   0  0  0  0  0  0  0  0  0  0  0  0
   -5.3083    0.7500    0.0000 N   0  0  0  0  0  0  0  0  0  0  0  0
   -3.8817    1.2135    0.0000 N   0  0  0  0  0  0  0  0  0  0  0  0
   -3.4182    2.6401    0.0000 C   0  0  0  0  0  0  0  0  0  0  0  0
   -4.2998    3.8536    0.0000 C   0  0  0  0  0  0  0  0  0  0  0  0
   -3.4182    5.0672    0.0000 C   0  0  0  0  0  0  0  0  0  0  0  0
   -1.9916    4.6036    0.0000 C   0  0  0  0  0  0  0  0  0  0  0  0
   -0.7780    5.4853    0.0000 C   0  0  0  0  0  0  0  0  0  0  0  0
    0.5923    4.8752    0.0000 C   0  0  0  0  0  0  0  0  0  0  0  0
    1.8058    5.7569    0.0000 C   0  0  0  0  0  0  0  0  0  0  0  0
    1.6490    7.2487    0.0000 C   0  0  0  0  0  0  0  0  0  0  0  0
    0.2787    7.8588    0.0000 C   0  0  0  0  0  0  0  0  0  0  0  0
   -0.9348    6.9771    0.0000 C   0  0  0  0  0  0  0  0  0  0  0  0
   -1.9916    3.1036    0.0000 C   0  0  0  0  0  0  0  0  0  0  0  0
   -0.7780    2.2220    0.0000 O   0  0  0  0  0  0  0  0  0  0  0  0
   -0.7500    1.2990    0.0000 C   0  0  0  0  0  0  0  0  0  0  0  0
    0.7500    1.2990    0.0000 C   0  0  0  0  0  0  0  0  0  0  0  0
  1  2  1  0
  2  3  2  0
  3  4  1  0
  4  5  2  0
  5  6  1  0
  6  7  2  0
  7  8  1  0
  8  9  2  0
  9 10  1  0
 10 11  1  0
 11 12  2  0
 12 13  1  0
 13 14  2  0
 14 15  1  0
 15 16  2  0
 16 17  1  0
 17 18  2  0
 18 19  1  0
 19 20  2  0
 14 21  1  0
 21 22  2  0
  5 23  1  0
 23 24  2  0
 24  2  1  0
 10  6  1  0
 21 11  1  0
 20 15  1  0
M  END
>  <Title>  (1078) 
idABPLgen7

$$$$

     RDKit          2D

 34 38  0  0  0  0  0  0  0  0999 V2000
   -0.7500   -3.8971    0.0000 O   0  0  0  0  0  0  0  0  0  0  0  0
    0.7500   -3.8971    0.0000 C   0  0  0  0  0  0  0  0  0  0  0  0
    1.5000   -2.5981    0.0000 N   0  0  0  0  0  0  0  0  0  0  0  0
    0.7500   -1.2990    0.0000 C   0  0  0  0  0  0  0  0  0  0  0  0
    1.5000    0.0000    0.0000 C   0  0  0  0  0  0  0  0  0  0  0  0
    0.7500    1.2990    0.0000 C   0  0  0  0  0  0  0  0  0  0  0  0
   -0.7500    1.2990    0.0000 C   0  0  0  0  0  0  0  0  0  0  0  0
   -1.5000    2.5981    0.0000 C   0  0  0  0  0  0  0  0  0  0  0  0
   -0.7500    3.8971    0.0000 C   0  0  0  0  0  0  0  0  0  0  0  0
   -1.5000    5.1962    0.0000 C   0  0  0  0  0  0  0  0  0  0  0  0
   -3.0000    5.1962    0.0000 C   0  0  0  0  0  0  0  0  0  0  0  0
   -3.7500    3.8971    0.0000 C   0  0  0  0  0  0  0  0  0  0  0  0
   -3.0000    2.5981    0.0000 C   0  0  0  0  0  0  0  0  0  0  0  0
   -1.5000    0.0000    0.0000 C   0  0  0  0  0  0  0  0  0  0  0  0
   -0.7500   -1.2990    0.0000 C   0  0  0  0  0  0  0  0  0  0  0  0
    1.5000   -5.1962    0.0000 C   0  0  0  0  0  0  0  0  0  0  0  0
    0.7500   -6.4952    0.0000 C   0  0  0  0  0  0  0  0  0  0  0  0
    1.5000   -7.7942    0.0000 C   0  0  0  0  0  0  0  0  0  0  0  0
    3.0000   -7.7942    0.0000 C   0  0  0  0  0  0  0  0  0  0  0  0
    3.7500   -9.0933    0.0000 C   0  0  0  0  0  0  0  0  0  0  0  0
    5.2418   -9.2501    0.0000 N   0  0  0  0  0  0  0  0  0  0  0  0
    5.5537  -10.7173    0.0000 N   0  0  0  0  0  0  0  0  0  0  0  0
    4.2546  -11.4673    0.0000 N   0  0  0  0  0  0  0  0  0  0  0  0
    3.1399  -10.4636    0.0000 N   0  0  0  0  0  0  0  0  0  0  0  0
    1.6727  -10.7755    0.0000 C   0  0  0  0  0  0  0  0  0  0  0  0
    0.6690   -9.6607    0.0000 C   0  0  0  0  0  0  0  0  0  0  0  0
   -0.7982   -9.9726    0.0000 C   0  0  0  0  0  0  0  0  0  0  0  0
   -1.2618  -11.3992    0.0000 C   0  0  0  0  0  0  0  0  0  0  0  0
   -2.7290  -11.7111    0.0000 O   0  0  0  0  0  0  0  0  0  0  0  0
   -0.2581  -12.5139    0.0000 N   0  0  0  0  0  0  0  0  0  0  0  0
    1.2091  -12.2020    0.0000 C   0  0  0  0  0  0  0  0  0  0  0  0
    2.2128  -13.3168    0.0000 O   0  0  0  0  0  0  0  0  0  0  0  0
    3.7500   -6.4952    0.0000 C   0  0  0  0  0  0  0  0  0  0  0  0
    3.0000   -5.1962    0.0000 C   0  0  0  0  0  0  0  0  0  0  0  0
  1  2  2  0
  2  3  1  0
  3  4  1  0
  4  5  2  0
  5  6  1  0
  6  7  2  0
  7  8  1  0
  8  9  2  0
  9 10  1  0
 10 11  2  0
 11 12  1  0
 12 13  2  0
  7 14  1  0
 14 15  2  0
  2 16  1  0
 16 17  2  0
 17 18  1  0
 18 19  2  0
 19 20  1  0
 20 21  2  0
 21 22  1  0
 22 23  2  0
 23 24  1  0
 24 25  1  0
 25 26  2  0
 26 27  1  0
 27 28  2  0
 28 29  1  0
 28 30  1  0
 30 31  1  0
 31 32  2  0
 19 33  1  0
 33 34  2  0
 15  4  1  0
 34 16  1  0
 13  8  1  0
 24 20  1  0
 31 25  1  0
M  END
>  <Title>  (1079) 
idABPMgen7

$$$$

     RDKit          2D

 36 40  0  0  0  0  0  0  0  0999 V2000
    0.4098    9.1901    0.0000 C   0  0  0  0  0  0  0  0  0  0  0  0
    0.5666    7.6983    0.0000 C   0  0  0  0  0  0  0  0  0  0  0  0
   -0.5481    6.6946    0.0000 C   0  0  0  0  0  0  0  0  0  0  0  0
    0.0620    5.3243    0.0000 C   0  0  0  0  0  0  0  0  0  0  0  0
    1.5538    5.4811    0.0000 C   0  0  0  0  0  0  0  0  0  0  0  0
    2.5575    4.3664    0.0000 C   0  0  0  0  0  0  0  0  0  0  0  0
    2.0940    2.9398    0.0000 O   0  0  0  0  0  0  0  0  0  0  0  0
    4.0247    4.6782    0.0000 N   0  0  0  0  0  0  0  0  0  0  0  0
    5.0284    3.5635    0.0000 C   0  0  0  0  0  0  0  0  0  0  0  0
    4.5649    2.1369    0.0000 O   0  0  0  0  0  0  0  0  0  0  0  0
    6.4956    3.8754    0.0000 C   0  0  0  0  0  0  0  0  0  0  0  0
    7.1057    5.2457    0.0000 N   0  0  0  0  0  0  0  0  0  0  0  0
    8.5975    5.0889    0.0000 N   0  0  0  0  0  0  0  0  0  0  0  0
    8.9094    3.6217    0.0000 N   0  0  0  0  0  0  0  0  0  0  0  0
    7.6104    2.8717    0.0000 N   0  0  0  0  0  0  0  0  0  0  0  0
    7.4536    1.3799    0.0000 C   0  0  0  0  0  0  0  0  0  0  0  0
    8.5683    0.3762    0.0000 C   0  0  0  0  0  0  0  0  0  0  0  0
    7.9582   -0.9941    0.0000 C   0  0  0  0  0  0  0  0  0  0  0  0
    6.4664   -0.8373    0.0000 C   0  0  0  0  0  0  0  0  0  0  0  0
    5.4627   -1.9520    0.0000 C   0  0  0  0  0  0  0  0  0  0  0  0
    5.9262   -3.3786    0.0000 O   0  0  0  0  0  0  0  0  0  0  0  0
    3.9955   -1.6402    0.0000 N   0  0  0  0  0  0  0  0  0  0  0  0
    2.9918   -2.7549    0.0000 C   0  0  0  0  0  0  0  0  0  0  0  0
    3.3037   -4.2221    0.0000 N   0  0  0  0  0  0  0  0  0  0  0  0
    2.0046   -4.9721    0.0000 N   0  0  0  0  0  0  0  0  0  0  0  0
    0.8899   -3.9684    0.0000 N   0  0  0  0  0  0  0  0  0  0  0  0
    1.5000   -2.5981    0.0000 N   0  0  0  0  0  0  0  0  0  0  0  0
    0.7500   -1.2990    0.0000 C   0  0  0  0  0  0  0  0  0  0  0  0
    1.5000    0.0000    0.0000 C   0  0  0  0  0  0  0  0  0  0  0  0
    0.7500    1.2990    0.0000 C   0  0  0  0  0  0  0  0  0  0  0  0
   -0.7500    1.2990    0.0000 C   0  0  0  0  0  0  0  0  0  0  0  0
   -1.5000    0.0000    0.0000 C   0  0  0  0  0  0  0  0  0  0  0  0
   -0.7500   -1.2990    0.0000 C   0  0  0  0  0  0  0  0  0  0  0  0
    6.1545    0.6299    0.0000 C   0  0  0  0  0  0  0  0  0  0  0  0
    4.7842    1.2400    0.0000 O   0  0  0  0  0  0  0  0  0  0  0  0
    1.8657    6.9483    0.0000 C   0  0  0  0  0  0  0  0  0  0  0  0
  1  2  1  0
  2  3  2  0
  3  4  1  0
  4  5  2  0
  5  6  1  0
  6  7  2  0
  6  8  1  0
  8  9  1  0
  9 10  2  0
  9 11  1  0
 11 12  2  0
 12 13  1  0
 13 14  2  0
 14 15  1  0
 15 16  1  0
 16 17  2  0
 17 18  1  0
 18 19  2  0
 19 20  1  0
 20 21  2  0
 20 22  1  0
 22 23  1  0
 23 24  2  0
 24 25  1  0
 25 26  2  0
 26 27  1  0
 27 28  1  0
 28 29  2  0
 29 30  1  0
 30 31  2  0
 31 32  1  0
 32 33  2  0
 19 34  1  0
 34 35  2  0
  5 36  1  0
 36  2  1  0
 15 11  1  0
 34 16  1  0
 27 23  1  0
 33 28  1  0
M  END
>  <Title>  (1080) 
idABPNgen7

$$$$

     RDKit          2D

 26 26  0  0  0  0  0  0  0  0999 V2000
    7.9960   -1.2990    0.0000 C   0  0  0  0  0  0  0  0  0  0  0  0
    7.2460    0.0000    0.0000 O   0  0  0  0  0  0  0  0  0  0  0  0
    5.7460    0.0000    0.0000 C   0  0  0  0  0  0  0  0  0  0  0  0
    5.5502   -1.4872    0.0000 C   0  0  0  0  0  0  0  0  0  0  0  0
    4.9762   -2.8730    0.0000 C   0  0  0  0  0  0  0  0  0  0  0  0
    4.0630   -4.0630    0.0000 C   0  0  0  0  0  0  0  0  0  0  0  0
    2.8730   -4.9762    0.0000 C   0  0  0  0  0  0  0  0  0  0  0  0
    1.4872   -5.5502    0.0000 C   0  0  0  0  0  0  0  0  0  0  0  0
   -0.0000   -5.7460    0.0000 C   0  0  0  0  0  0  0  0  0  0  0  0
   -1.4872   -5.5502    0.0000 C   0  0  0  0  0  0  0  0  0  0  0  0
   -2.8730   -4.9762    0.0000 C   0  0  0  0  0  0  0  0  0  0  0  0
   -4.0630   -4.0630    0.0000 C   0  0  0  0  0  0  0  0  0  0  0  0
   -4.9762   -2.8730    0.0000 C   0  0  0  0  0  0  0  0  0  0  0  0
   -5.5502   -1.4872    0.0000 C   0  0  0  0  0  0  0  0  0  0  0  0
   -5.7460    0.0000    0.0000 C   0  0  0  0  0  0  0  0  0  0  0  0
   -5.5502    1.4872    0.0000 C   0  0  0  0  0  0  0  0  0  0  0  0
   -4.9762    2.8730    0.0000 C   0  0  0  0  0  0  0  0  0  0  0  0
   -4.0630    4.0630    0.0000 C   0  0  0  0  0  0  0  0  0  0  0  0
   -2.8730    4.9762    0.0000 C   0  0  0  0  0  0  0  0  0  0  0  0
   -1.4872    5.5502    0.0000 C   0  0  0  0  0  0  0  0  0  0  0  0
    0.0000    5.7460    0.0000 C   0  0  0  0  0  0  0  0  0  0  0  0
    1.4872    5.5502    0.0000 C   0  0  0  0  0  0  0  0  0  0  0  0
    2.8730    4.9762    0.0000 C   0  0  0  0  0  0  0  0  0  0  0  0
    4.0630    4.0630    0.0000 C   0  0  0  0  0  0  0  0  0  0  0  0
    4.9762    2.8730    0.0000 C   0  0  0  0  0  0  0  0  0  0  0  0
    5.5502    1.4872    0.0000 C   0  0  0  0  0  0  0  0  0  0  0  0
  1  2  1  0
  2  3  1  0
  3  4  2  0
  4  5  1  0
  5  6  2  0
  6  7  1  0
  7  8  2  0
  8  9  1  0
  9 10  2  0
 10 11  1  0
 11 12  2  0
 12 13  1  0
 13 14  2  0
 14 15  1  0
 15 16  2  0
 16 17  1  0
 17 18  2  0
 18 19  1  0
 19 20  2  0
 20 21  1  0
 21 22  2  0
 22 23  1  0
 23 24  2  0
 24 25  1  0
 25 26  2  0
 26  3  1  0
M  END
>  <Title>  (1081) 
idABPOgen7

$$$$

     RDKit          2D

 32 35  0  0  0  0  0  0  0  0999 V2000
    3.7500   -1.2990    0.0000 C   0  0  0  0  0  0  0  0  0  0  0  0
    3.0000    0.0000    0.0000 O   0  0  0  0  0  0  0  0  0  0  0  0
    1.5000    0.0000    0.0000 C   0  0  0  0  0  0  0  0  0  0  0  0
    0.7500   -1.2990    0.0000 C   0  0  0  0  0  0  0  0  0  0  0  0
   -0.7500   -1.2990    0.0000 C   0  0  0  0  0  0  0  0  0  0  0  0
   -1.5000    0.0000    0.0000 C   0  0  0  0  0  0  0  0  0  0  0  0
   -3.0000    0.0000    0.0000 C   0  0  0  0  0  0  0  0  0  0  0  0
   -3.7500   -1.2990    0.0000 O   0  0  0  0  0  0  0  0  0  0  0  0
   -3.7500    1.2990    0.0000 N   0  0  0  0  0  0  0  0  0  0  0  0
   -5.2500    1.2990    0.0000 C   0  0  0  0  0  0  0  0  0  0  0  0
   -6.1317    0.0855    0.0000 N   0  0  0  0  0  0  0  0  0  0  0  0
   -7.5583    0.5490    0.0000 N   0  0  0  0  0  0  0  0  0  0  0  0
   -7.5583    2.0490    0.0000 N   0  0  0  0  0  0  0  0  0  0  0  0
   -6.1317    2.5126    0.0000 N   0  0  0  0  0  0  0  0  0  0  0  0
   -5.6682    3.9391    0.0000 C   0  0  0  0  0  0  0  0  0  0  0  0
   -6.5498    5.1527    0.0000 C   0  0  0  0  0  0  0  0  0  0  0  0
   -5.6682    6.3662    0.0000 C   0  0  0  0  0  0  0  0  0  0  0  0
   -4.2416    5.9027    0.0000 C   0  0  0  0  0  0  0  0  0  0  0  0
   -3.0280    6.7844    0.0000 C   0  0  0  0  0  0  0  0  0  0  0  0
   -1.6577    6.1742    0.0000 C   0  0  0  0  0  0  0  0  0  0  0  0
   -0.4442    7.0559    0.0000 C   0  0  0  0  0  0  0  0  0  0  0  0
   -0.6010    8.5477    0.0000 C   0  0  0  0  0  0  0  0  0  0  0  0
    0.6125    9.4294    0.0000 C   0  0  0  0  0  0  0  0  0  0  0  0
    0.4557   10.9212    0.0000 O   0  0  0  0  0  0  0  0  0  0  0  0
    1.9829    8.8193    0.0000 N   0  0  0  0  0  0  0  0  0  0  0  0
    3.1964    9.7010    0.0000 O   0  0  0  0  0  0  0  0  0  0  0  0
   -1.9713    9.1578    0.0000 C   0  0  0  0  0  0  0  0  0  0  0  0
   -3.1848    8.2761    0.0000 C   0  0  0  0  0  0  0  0  0  0  0  0
   -4.2416    4.4027    0.0000 C   0  0  0  0  0  0  0  0  0  0  0  0
   -3.0280    3.5210    0.0000 O   0  0  0  0  0  0  0  0  0  0  0  0
   -0.7500    1.2990    0.0000 C   0  0  0  0  0  0  0  0  0  0  0  0
    0.7500    1.2990    0.0000 C   0  0  0  0  0  0  0  0  0  0  0  0
  1  2  1  0
  2  3  1  0
  3  4  2  0
  4  5  1  0
  5  6  2  0
  6  7  1  0
  7  8  2  0
  7  9  1  0
  9 10  1  0
 10 11  2  0
 11 12  1  0
 12 13  2  0
 13 14  1  0
 14 15  1  0
 15 16  2  0
 16 17  1  0
 17 18  2  0
 18 19  1  0
 19 20  2  0
 20 21  1  0
 21 22  2  0
 22 23  1  0
 23 24  2  0
 23 25  1  0
 25 26  1  0
 22 27  1  0
 27 28  1  0
 18 29  1  0
 29 30  2  0
  6 31  1  0
 31 32  1  0
 32  3  1  0
 14 10  1  0
 29 15  1  0
 28 19  1  0
M  END
>  <Title>  (1082) 
idABPPgen7

$$$$

     RDKit          2D

  4  3  0  0  0  0  0  0  0  0999 V2000
    0.0000    0.0000    0.0000 C   0  0  0  0  0  0  0  0  0  0  0  0
    1.2990    0.7500    0.0000 C   0  0  0  0  0  0  0  0  0  0  0  0
    1.2990    2.2500    0.0000 O   0  0  0  0  0  0  0  0  0  0  0  0
    2.5981   -0.0000    0.0000 O   0  0  0  0  0  0  0  0  0  0  0  0
  1  2  1  0
  2  3  2  0
  2  4  1  0
M  END
>  <Title>  (1083) 
idABPQgen7

$$$$

     RDKit          2D

 26 29  0  0  0  0  0  0  0  0999 V2000
    3.0000    0.0000    0.0000 C   0  0  0  0  0  0  0  0  0  0  0  0
    1.5000    0.0000    0.0000 C   0  0  0  0  0  0  0  0  0  0  0  0
    0.7500   -1.2990    0.0000 C   0  0  0  0  0  0  0  0  0  0  0  0
   -0.7500   -1.2990    0.0000 C   0  0  0  0  0  0  0  0  0  0  0  0
   -1.5000    0.0000    0.0000 C   0  0  0  0  0  0  0  0  0  0  0  0
   -3.0000    0.0000    0.0000 N   0  0  0  0  0  0  0  0  0  0  0  0
   -3.7500    1.2990    0.0000 N   0  0  0  0  0  0  0  0  0  0  0  0
   -5.2500    1.2990    0.0000 N   0  0  0  0  0  0  0  0  0  0  0  0
   -6.0000    0.0000    0.0000 N   0  0  0  0  0  0  0  0  0  0  0  0
   -5.2500   -1.2990    0.0000 N   0  0  0  0  0  0  0  0  0  0  0  0
   -3.7500   -1.2990    0.0000 N   0  0  0  0  0  0  0  0  0  0  0  0
   -3.0000   -2.5981    0.0000 C   0  0  0  0  0  0  0  0  0  0  0  0
   -3.7500   -3.8971    0.0000 C   0  0  0  0  0  0  0  0  0  0  0  0
   -3.0000   -5.1962    0.0000 C   0  0  0  0  0  0  0  0  0  0  0  0
   -1.5000   -5.1962    0.0000 C   0  0  0  0  0  0  0  0  0  0  0  0
   -0.7500   -6.4952    0.0000 C   0  0  0  0  0  0  0  0  0  0  0  0
   -1.5000   -7.7942    0.0000 C   0  0  0  0  0  0  0  0  0  0  0  0
   -0.7500   -9.0933    0.0000 C   0  0  0  0  0  0  0  0  0  0  0  0
    0.7500   -9.0933    0.0000 C   0  0  0  0  0  0  0  0  0  0  0  0
    1.5000   -7.7942    0.0000 C   0  0  0  0  0  0  0  0  0  0  0  0
    0.7500   -6.4952    0.0000 C   0  0  0  0  0  0  0  0  0  0  0  0
   -0.7500   -3.8971    0.0000 C   0  0  0  0  0  0  0  0  0  0  0  0
   -1.5000   -2.5981    0.0000 C   0  0  0  0  0  0  0  0  0  0  0  0
   -0.7500    1.2990    0.0000 C   0  0  0  0  0  0  0  0  0  0  0  0
   -1.5000    2.5981    0.0000 O   0  0  0  0  0  0  0  0  0  0  0  0
    0.7500    1.2990    0.0000 N   0  0  0  0  0  0  0  0  0  0  0  0
  1  2  1  0
  2  3  2  0
  3  4  1  0
  4  5  2  0
  5  6  1  0
  6  7  1  0
  7  8  2  0
  8  9  1  0
  9 10  2  0
 10 11  1  0
 11 12  1  0
 12 13  2  0
 13 14  1  0
 14 15  2  0
 15 16  1  0
 16 17  2  0
 17 18  1  0
 18 19  2  0
 19 20  1  0
 20 21  2  0
 15 22  1  0
 22 23  2  0
  5 24  1  0
 24 25  2  0
 24 26  1  0
 26  2  1  0
 11  6  1  0
 23 12  1  0
 21 16  1  0
M  END
>  <Title>  (1084) 
idABPRgen7

$$$$

     RDKit          2D

 43 48  0  0  0  0  0  0  0  0999 V2000
    4.3159   -3.5249    0.0000 C   0  0  0  0  0  0  0  0  0  0  0  0
    3.0765   -4.3699    0.0000 C   0  0  0  0  0  0  0  0  0  0  0  0
    3.3001   -5.8531    0.0000 C   0  0  0  0  0  0  0  0  0  0  0  0
    2.2798   -6.9527    0.0000 C   0  0  0  0  0  0  0  0  0  0  0  0
    0.7840   -6.8406    0.0000 C   0  0  0  0  0  0  0  0  0  0  0  0
   -0.0610   -5.6012    0.0000 C   0  0  0  0  0  0  0  0  0  0  0  0
    0.3812   -4.1679    0.0000 C   0  0  0  0  0  0  0  0  0  0  0  0
   -0.7184   -3.1476    0.0000 N   0  0  0  0  0  0  0  0  0  0  0  0
   -2.1518   -3.5898    0.0000 C   0  0  0  0  0  0  0  0  0  0  0  0
   -2.6366   -5.0093    0.0000 N   0  0  0  0  0  0  0  0  0  0  0  0
   -4.1364   -4.9868    0.0000 N   0  0  0  0  0  0  0  0  0  0  0  0
   -4.5786   -3.5535    0.0000 N   0  0  0  0  0  0  0  0  0  0  0  0
   -3.3520   -2.6900    0.0000 N   0  0  0  0  0  0  0  0  0  0  0  0
   -3.3295   -1.1902    0.0000 C   0  0  0  0  0  0  0  0  0  0  0  0
   -2.0194   -0.4597    0.0000 C   0  0  0  0  0  0  0  0  0  0  0  0
   -1.9970    1.0401    0.0000 C   0  0  0  0  0  0  0  0  0  0  0  0
   -3.2847    1.8095    0.0000 C   0  0  0  0  0  0  0  0  0  0  0  0
   -3.2622    3.3093    0.0000 C   0  0  0  0  0  0  0  0  0  0  0  0
   -1.9521    4.0398    0.0000 O   0  0  0  0  0  0  0  0  0  0  0  0
   -4.5499    4.0787    0.0000 N   0  0  0  0  0  0  0  0  0  0  0  0
   -4.5275    5.5785    0.0000 C   0  0  0  0  0  0  0  0  0  0  0  0
   -3.2174    6.3090    0.0000 C   0  0  0  0  0  0  0  0  0  0  0  0
   -3.1949    7.8088    0.0000 C   0  0  0  0  0  0  0  0  0  0  0  0
   -4.4826    8.5781    0.0000 C   0  0  0  0  0  0  0  0  0  0  0  0
   -5.7927    7.8477    0.0000 N   0  0  0  0  0  0  0  0  0  0  0  0
   -5.8151    6.3478    0.0000 C   0  0  0  0  0  0  0  0  0  0  0  0
   -4.5948    1.0790    0.0000 C   0  0  0  0  0  0  0  0  0  0  0  0
   -4.6172   -0.4208    0.0000 C   0  0  0  0  0  0  0  0  0  0  0  0
   -5.9273   -1.1513    0.0000 C   0  0  0  0  0  0  0  0  0  0  0  0
   -5.9498   -2.6512    0.0000 C   0  0  0  0  0  0  0  0  0  0  0  0
   -7.2599   -3.3816    0.0000 C   0  0  0  0  0  0  0  0  0  0  0  0
   -8.5476   -2.6123    0.0000 C   0  0  0  0  0  0  0  0  0  0  0  0
   -8.5251   -1.1125    0.0000 C   0  0  0  0  0  0  0  0  0  0  0  0
   -7.2150   -0.3820    0.0000 C   0  0  0  0  0  0  0  0  0  0  0  0
   -7.1926    1.1179    0.0000 C   0  0  0  0  0  0  0  0  0  0  0  0
   -5.8825    1.8483    0.0000 C   0  0  0  0  0  0  0  0  0  0  0  0
   -5.8600    3.3482    0.0000 C   0  0  0  0  0  0  0  0  0  0  0  0
   -7.1477    4.1175    0.0000 C   0  0  0  0  0  0  0  0  0  0  0  0
   -7.1252    5.6173    0.0000 C   0  0  0  0  0  0  0  0  0  0  0  0
   -8.4578    3.3870    0.0000 C   0  0  0  0  0  0  0  0  0  0  0  0
   -9.7455    4.1564    0.0000 O   0  0  0  0  0  0  0  0  0  0  0  0
   -8.4802    1.8872    0.0000 N   0  0  0  0  0  0  0  0  0  0  0  0
    1.7775   -3.6199    0.0000 N   0  0  0  0  0  0  0  0  0  0  0  0
  1  2  1  0
  2  3  2  0
  3  4  1  0
  4  5  2  0
  5  6  1  0
  6  7  2  0
  7  8  1  0
  8  9  1  0
  9 10  2  0
 10 11  1  0
 11 12  2  0
 12 13  1  0
 13 14  1  0
 14 15  2  0
 15 16  1  0
 16 17  2  0
 17 18  1  0
 18 19  2  0
 18 20  1  0
 20 21  1  0
 21 22  2  0
 22 23  1  0
 23 24  2  0
 24 25  1  0
 25 26  2  0
 17 27  1  0
 27 28  2  0
 28 29  1  0
 29 30  2  0
 30 31  1  0
 31 32  2  0
 32 33  1  0
 33 34  2  0
 34 35  1  0
 35 36  2  0
 36 37  1  0
 37 38  2  0
 38 39  1  0
 38 40  1  0
 40 41  2  0
 40 42  1  0
  7 43  1  0
 43  2  1  0
 13  9  1  0
 28 14  1  0
 34 29  1  0
 42 35  1  0
 26 21  1  0
M  END
>  <Title>  (1085) 
idABPSgen7

$$$$

     RDKit          2D

 32 35  0  0  0  0  0  0  0  0999 V2000
    3.0000    0.0000    0.0000 C   0  0  0  0  0  0  0  0  0  0  0  0
    1.5000    0.0000    0.0000 C   0  0  0  0  0  0  0  0  0  0  0  0
    0.7500   -1.2990    0.0000 C   0  0  0  0  0  0  0  0  0  0  0  0
   -0.7500   -1.2990    0.0000 C   0  0  0  0  0  0  0  0  0  0  0  0
   -1.5000    0.0000    0.0000 C   0  0  0  0  0  0  0  0  0  0  0  0
   -3.0000    0.0000    0.0000 C   0  0  0  0  0  0  0  0  0  0  0  0
   -3.7500   -1.2990    0.0000 O   0  0  0  0  0  0  0  0  0  0  0  0
   -3.7500    1.2990    0.0000 N   0  0  0  0  0  0  0  0  0  0  0  0
   -5.2500    1.2990    0.0000 C   0  0  0  0  0  0  0  0  0  0  0  0
   -6.1317    0.0855    0.0000 N   0  0  0  0  0  0  0  0  0  0  0  0
   -7.5583    0.5490    0.0000 N   0  0  0  0  0  0  0  0  0  0  0  0
   -7.5583    2.0490    0.0000 N   0  0  0  0  0  0  0  0  0  0  0  0
   -6.1317    2.5126    0.0000 N   0  0  0  0  0  0  0  0  0  0  0  0
   -5.6682    3.9391    0.0000 C   0  0  0  0  0  0  0  0  0  0  0  0
   -6.5498    5.1527    0.0000 C   0  0  0  0  0  0  0  0  0  0  0  0
   -5.6682    6.3662    0.0000 C   0  0  0  0  0  0  0  0  0  0  0  0
   -4.2416    5.9027    0.0000 C   0  0  0  0  0  0  0  0  0  0  0  0
   -3.0280    6.7844    0.0000 C   0  0  0  0  0  0  0  0  0  0  0  0
   -3.1848    8.2761    0.0000 O   0  0  0  0  0  0  0  0  0  0  0  0
   -1.6577    6.1742    0.0000 N   0  0  0  0  0  0  0  0  0  0  0  0
   -0.4442    7.0559    0.0000 C   0  0  0  0  0  0  0  0  0  0  0  0
   -0.4442    8.5559    0.0000 C   0  0  0  0  0  0  0  0  0  0  0  0
    0.9824    9.0195    0.0000 C   0  0  0  0  0  0  0  0  0  0  0  0
    1.8641    7.8059    0.0000 C   0  0  0  0  0  0  0  0  0  0  0  0
    3.3641    7.8059    0.0000 C   0  0  0  0  0  0  0  0  0  0  0  0
    0.9824    6.5924    0.0000 C   0  0  0  0  0  0  0  0  0  0  0  0
    1.4459    5.1658    0.0000 O   0  0  0  0  0  0  0  0  0  0  0  0
   -4.2416    4.4027    0.0000 C   0  0  0  0  0  0  0  0  0  0  0  0
   -3.0280    3.5210    0.0000 O   0  0  0  0  0  0  0  0  0  0  0  0
   -0.7500    1.2990    0.0000 C   0  0  0  0  0  0  0  0  0  0  0  0
   -1.5000    2.5981    0.0000 O   0  0  0  0  0  0  0  0  0  0  0  0
    0.7500    1.2990    0.0000 N   0  0  0  0  0  0  0  0  0  0  0  0
  1  2  1  0
  2  3  2  0
  3  4  1  0
  4  5  2  0
  5  6  1  0
  6  7  2  0
  6  8  1  0
  8  9  1  0
  9 10  2  0
 10 11  1  0
 11 12  2  0
 12 13  1  0
 13 14  1  0
 14 15  2  0
 15 16  1  0
 16 17  2  0
 17 18  1  0
 18 19  2  0
 18 20  1  0
 20 21  1  0
 21 22  2  0
 22 23  1  0
 23 24  2  0
 24 25  1  0
 24 26  1  0
 26 27  2  0
 17 28  1  0
 28 29  2  0
  5 30  1  0
 30 31  2  0
 30 32  1  0
 32  2  1  0
 13  9  1  0
 28 14  1  0
 26 21  1  0
M  END
>  <Title>  (1086) 
idABPTgen7

$$$$

     RDKit          2D

  6  6  0  0  0  0  0  0  0  0999 V2000
    2.7760    0.0000    0.0000 O   0  0  0  0  0  0  0  0  0  0  0  0
    1.2760    0.0000    0.0000 C   0  0  0  0  0  0  0  0  0  0  0  0
    0.3943    1.2135    0.0000 C   0  0  0  0  0  0  0  0  0  0  0  0
   -1.0323    0.7500    0.0000 C   0  0  0  0  0  0  0  0  0  0  0  0
   -1.0323   -0.7500    0.0000 C   0  0  0  0  0  0  0  0  0  0  0  0
    0.3943   -1.2135    0.0000 C   0  0  0  0  0  0  0  0  0  0  0  0
  1  2  1  0
  2  3  2  0
  3  4  1  0
  4  5  2  0
  5  6  1  0
  6  2  1  0
M  END
>  <Title>  (1087) 
idABPUgen7

$$$$

     RDKit          2D

 15 16  0  0  0  0  0  0  0  0999 V2000
    3.4233    5.9293    0.0000 C   0  0  0  0  0  0  0  0  0  0  0  0
    2.6733    4.6303    0.0000 C   0  0  0  0  0  0  0  0  0  0  0  0
    3.5183    3.3909    0.0000 C   0  0  0  0  0  0  0  0  0  0  0  0
    3.0761    1.9576    0.0000 C   0  0  0  0  0  0  0  0  0  0  0  0
    1.6798    1.4095    0.0000 C   0  0  0  0  0  0  0  0  0  0  0  0
    2.1929    0.0000    0.0000 C   0  0  0  0  0  0  0  0  0  0  0  0
    1.6798   -1.4095    0.0000 C   0  0  0  0  0  0  0  0  0  0  0  0
    0.3808   -2.1595    0.0000 C   0  0  0  0  0  0  0  0  0  0  0  0
   -1.0964   -1.8991    0.0000 C   0  0  0  0  0  0  0  0  0  0  0  0
   -2.0606   -0.7500    0.0000 C   0  0  0  0  0  0  0  0  0  0  0  0
   -2.0606    0.7500    0.0000 C   0  0  0  0  0  0  0  0  0  0  0  0
   -1.0964    1.8991    0.0000 C   0  0  0  0  0  0  0  0  0  0  0  0
    0.3808    2.1595    0.0000 C   0  0  0  0  0  0  0  0  0  0  0  0
    0.1572    3.6428    0.0000 C   0  0  0  0  0  0  0  0  0  0  0  0
    1.1775    4.7424    0.0000 C   0  0  0  0  0  0  0  0  0  0  0  0
  1  2  1  0
  2  3  2  0
  3  4  1  0
  4  5  2  0
  5  6  1  0
  6  7  2  0
  7  8  1  0
  8  9  2  0
  9 10  1  0
 10 11  2  0
 11 12  1  0
 12 13  2  0
 13 14  1  0
 14 15  2  0
 15  2  1  0
 13  5  1  0
M  END
>  <Title>  (1088) 
idABPVgen7

$$$$

     RDKit          2D

 19 21  0  0  0  0  0  0  0  0999 V2000
    0.0000   -9.6073    0.0000 C   0  0  0  0  0  0  0  0  0  0  0  0
    0.0000   -8.1073    0.0000 C   0  0  0  0  0  0  0  0  0  0  0  0
   -1.2990   -7.3573    0.0000 C   0  0  0  0  0  0  0  0  0  0  0  0
   -1.2990   -5.8573    0.0000 C   0  0  0  0  0  0  0  0  0  0  0  0
   -0.0000   -5.1073    0.0000 C   0  0  0  0  0  0  0  0  0  0  0  0
   -0.0000   -3.6073    0.0000 N   0  0  0  0  0  0  0  0  0  0  0  0
    1.2135   -2.7256    0.0000 C   0  0  0  0  0  0  0  0  0  0  0  0
    2.6401   -3.1891    0.0000 O   0  0  0  0  0  0  0  0  0  0  0  0
    0.7500   -1.2990    0.0000 C   0  0  0  0  0  0  0  0  0  0  0  0
    1.5000    0.0000    0.0000 C   0  0  0  0  0  0  0  0  0  0  0  0
    0.7500    1.2990    0.0000 C   0  0  0  0  0  0  0  0  0  0  0  0
   -0.7500    1.2990    0.0000 C   0  0  0  0  0  0  0  0  0  0  0  0
   -1.5000    0.0000    0.0000 C   0  0  0  0  0  0  0  0  0  0  0  0
   -0.7500   -1.2990    0.0000 C   0  0  0  0  0  0  0  0  0  0  0  0
   -1.2135   -2.7256    0.0000 C   0  0  0  0  0  0  0  0  0  0  0  0
   -2.6401   -3.1891    0.0000 O   0  0  0  0  0  0  0  0  0  0  0  0
    1.2990   -5.8573    0.0000 C   0  0  0  0  0  0  0  0  0  0  0  0
    2.5981   -5.1073    0.0000 O   0  0  0  0  0  0  0  0  0  0  0  0
    1.2990   -7.3573    0.0000 N   0  0  0  0  0  0  0  0  0  0  0  0
  1  2  1  0
  2  3  2  0
  3  4  1  0
  4  5  2  0
  5  6  1  0
  6  7  1  0
  7  8  2  0
  7  9  1  0
  9 10  2  0
 10 11  1  0
 11 12  2  0
 12 13  1  0
 13 14  2  0
 14 15  1  0
 15 16  2  0
  5 17  1  0
 17 18  2  0
 17 19  1  0
 19  2  1  0
 15  6  1  0
 14  9  1  0
M  END
>  <Title>  (1089) 
idABPWgen7

$$$$

     RDKit          2D

 22 22  0  0  0  0  0  0  0  0999 V2000
    5.1073   -5.1962    0.0000 C   0  0  0  0  0  0  0  0  0  0  0  0
    5.8573   -3.8971    0.0000 C   0  0  0  0  0  0  0  0  0  0  0  0
    7.3573   -3.8971    0.0000 C   0  0  0  0  0  0  0  0  0  0  0  0
    5.1073   -2.5981    0.0000 C   0  0  0  0  0  0  0  0  0  0  0  0
    5.8573   -1.2990    0.0000 C   0  0  0  0  0  0  0  0  0  0  0  0
    7.3573   -1.2990    0.0000 C   0  0  0  0  0  0  0  0  0  0  0  0
    5.1073    0.0000    0.0000 C   0  0  0  0  0  0  0  0  0  0  0  0
    3.6073    0.0000    0.0000 C   0  0  0  0  0  0  0  0  0  0  0  0
    3.2954    1.4672    0.0000 C   0  0  0  0  0  0  0  0  0  0  0  0
    2.4138    2.6807    0.0000 C   0  0  0  0  0  0  0  0  0  0  0  0
    1.1147    3.4307    0.0000 C   0  0  0  0  0  0  0  0  0  0  0  0
   -0.3771    3.5875    0.0000 C   0  0  0  0  0  0  0  0  0  0  0  0
   -1.8037    3.1240    0.0000 C   0  0  0  0  0  0  0  0  0  0  0  0
   -2.9184    2.1203    0.0000 C   0  0  0  0  0  0  0  0  0  0  0  0
   -3.5285    0.7500    0.0000 C   0  0  0  0  0  0  0  0  0  0  0  0
   -3.5285   -0.7500    0.0000 C   0  0  0  0  0  0  0  0  0  0  0  0
   -2.9184   -2.1203    0.0000 C   0  0  0  0  0  0  0  0  0  0  0  0
   -1.8037   -3.1240    0.0000 C   0  0  0  0  0  0  0  0  0  0  0  0
   -0.3771   -3.5875    0.0000 C   0  0  0  0  0  0  0  0  0  0  0  0
    1.1147   -3.4307    0.0000 C   0  0  0  0  0  0  0  0  0  0  0  0
    2.4138   -2.6807    0.0000 C   0  0  0  0  0  0  0  0  0  0  0  0
    3.2954   -1.4672    0.0000 C   0  0  0  0  0  0  0  0  0  0  0  0
  1  2  1  0
  2  3  1  0
  2  4  1  0
  4  5  1  0
  5  6  1  0
  5  7  1  0
  7  8  1  0
  8  9  1  0
  9 10  2  0
 10 11  1  0
 11 12  2  0
 12 13  1  0
 13 14  2  0
 14 15  1  0
 15 16  2  0
 16 17  1  0
 17 18  2  0
 18 19  1  0
 19 20  2  0
 20 21  1  0
 21 22  2  0
 22  8  1  0
M  END
>  <Title>  (1090) 
idABPXgen7

$$$$

     RDKit          2D

 15 15  0  0  0  0  0  0  0  0999 V2000
    4.8705    0.0000    0.0000 C   0  0  0  0  0  0  0  0  0  0  0  0
    3.3705    0.0000    0.0000 C   0  0  0  0  0  0  0  0  0  0  0  0
    3.0367   -1.4624    0.0000 C   0  0  0  0  0  0  0  0  0  0  0  0
    2.1015   -2.6351    0.0000 C   0  0  0  0  0  0  0  0  0  0  0  0
    0.7500   -3.2860    0.0000 C   0  0  0  0  0  0  0  0  0  0  0  0
   -0.7500   -3.2860    0.0000 C   0  0  0  0  0  0  0  0  0  0  0  0
   -2.1015   -2.6351    0.0000 C   0  0  0  0  0  0  0  0  0  0  0  0
   -3.0367   -1.4624    0.0000 C   0  0  0  0  0  0  0  0  0  0  0  0
   -3.3705    0.0000    0.0000 C   0  0  0  0  0  0  0  0  0  0  0  0
   -3.0367    1.4624    0.0000 C   0  0  0  0  0  0  0  0  0  0  0  0
   -2.1015    2.6351    0.0000 C   0  0  0  0  0  0  0  0  0  0  0  0
   -0.7500    3.2860    0.0000 C   0  0  0  0  0  0  0  0  0  0  0  0
    0.7500    3.2860    0.0000 C   0  0  0  0  0  0  0  0  0  0  0  0
    2.1015    2.6351    0.0000 C   0  0  0  0  0  0  0  0  0  0  0  0
    3.0367    1.4624    0.0000 C   0  0  0  0  0  0  0  0  0  0  0  0
  1  2  1  0
  2  3  2  0
  3  4  1  0
  4  5  2  0
  5  6  1  0
  6  7  2  0
  7  8  1  0
  8  9  2  0
  9 10  1  0
 10 11  2  0
 11 12  1  0
 12 13  2  0
 13 14  1  0
 14 15  2  0
 15  2  1  0
M  END
>  <Title>  (1091) 
idABPYgen7

$$$$

     RDKit          2D

 28 31  0  0  0  0  0  0  0  0999 V2000
    3.0000    0.0000    0.0000 C   0  0  0  0  0  0  0  0  0  0  0  0
    1.5000    0.0000    0.0000 C   0  0  0  0  0  0  0  0  0  0  0  0
    0.7500   -1.2990    0.0000 C   0  0  0  0  0  0  0  0  0  0  0  0
   -0.7500   -1.2990    0.0000 C   0  0  0  0  0  0  0  0  0  0  0  0
   -1.5000    0.0000    0.0000 C   0  0  0  0  0  0  0  0  0  0  0  0
   -3.0000    0.0000    0.0000 C   0  0  0  0  0  0  0  0  0  0  0  0
   -3.7500    1.2990    0.0000 O   0  0  0  0  0  0  0  0  0  0  0  0
   -3.7500   -1.2990    0.0000 N   0  0  0  0  0  0  0  0  0  0  0  0
   -5.2500   -1.2990    0.0000 C   0  0  0  0  0  0  0  0  0  0  0  0
   -6.1317   -2.5126    0.0000 C   0  0  0  0  0  0  0  0  0  0  0  0
   -7.5583   -2.0490    0.0000 C   0  0  0  0  0  0  0  0  0  0  0  0
   -7.5583   -0.5490    0.0000 C   0  0  0  0  0  0  0  0  0  0  0  0
   -8.7718    0.3326    0.0000 C   0  0  0  0  0  0  0  0  0  0  0  0
  -10.1984   -0.1309    0.0000 N   0  0  0  0  0  0  0  0  0  0  0  0
  -11.0801    1.0826    0.0000 N   0  0  0  0  0  0  0  0  0  0  0  0
  -10.1984    2.2962    0.0000 N   0  0  0  0  0  0  0  0  0  0  0  0
   -8.7718    1.8326    0.0000 N   0  0  0  0  0  0  0  0  0  0  0  0
   -7.5583    2.7143    0.0000 C   0  0  0  0  0  0  0  0  0  0  0  0
   -6.1879    2.1042    0.0000 C   0  0  0  0  0  0  0  0  0  0  0  0
   -4.9744    2.9859    0.0000 C   0  0  0  0  0  0  0  0  0  0  0  0
   -5.1312    4.4777    0.0000 C   0  0  0  0  0  0  0  0  0  0  0  0
   -6.5015    5.0878    0.0000 C   0  0  0  0  0  0  0  0  0  0  0  0
   -7.7151    4.2061    0.0000 C   0  0  0  0  0  0  0  0  0  0  0  0
   -6.1317   -0.0855    0.0000 C   0  0  0  0  0  0  0  0  0  0  0  0
   -5.6682    1.3411    0.0000 O   0  0  0  0  0  0  0  0  0  0  0  0
   -0.7500    1.2990    0.0000 C   0  0  0  0  0  0  0  0  0  0  0  0
   -1.5000    2.5981    0.0000 C   0  0  0  0  0  0  0  0  0  0  0  0
    0.7500    1.2990    0.0000 C   0  0  0  0  0  0  0  0  0  0  0  0
  1  2  1  0
  2  3  2  0
  3  4  1  0
  4  5  2  0
  5  6  1  0
  6  7  2  0
  6  8  1  0
  8  9  1  0
  9 10  2  0
 10 11  1  0
 11 12  2  0
 12 13  1  0
 13 14  2  0
 14 15  1  0
 15 16  2  0
 16 17  1  0
 17 18  1  0
 18 19  2  0
 19 20  1  0
 20 21  2  0
 21 22  1  0
 22 23  2  0
 12 24  1  0
 24 25  2  0
  5 26  1  0
 26 27  1  0
 26 28  2  0
 28  2  1  0
 24  9  1  0
 17 13  1  0
 23 18  1  0
M  END
>  <Title>  (1092) 
idABPZgen7

$$$$

     RDKit          2D

 56 64  0  0  0  0  0  0  0  0999 V2000
    3.0000    0.0000    0.0000 C   0  0  0  0  0  0  0  0  0  0  0  0
    1.5000    0.0000    0.0000 C   0  0  0  0  0  0  0  0  0  0  0  0
    0.7500   -1.2990    0.0000 C   0  0  0  0  0  0  0  0  0  0  0  0
   -0.7500   -1.2990    0.0000 C   0  0  0  0  0  0  0  0  0  0  0  0
   -1.5000    0.0000    0.0000 C   0  0  0  0  0  0  0  0  0  0  0  0
   -3.0000    0.0000    0.0000 C   0  0  0  0  0  0  0  0  0  0  0  0
   -3.7500   -1.2990    0.0000 O   0  0  0  0  0  0  0  0  0  0  0  0
   -3.7500    1.2990    0.0000 N   0  0  0  0  0  0  0  0  0  0  0  0
   -5.2500    1.2990    0.0000 C   0  0  0  0  0  0  0  0  0  0  0  0
   -6.1317    0.0855    0.0000 N   0  0  0  0  0  0  0  0  0  0  0  0
   -7.5583    0.5490    0.0000 N   0  0  0  0  0  0  0  0  0  0  0  0
   -7.5583    2.0490    0.0000 N   0  0  0  0  0  0  0  0  0  0  0  0
   -6.1317    2.5126    0.0000 N   0  0  0  0  0  0  0  0  0  0  0  0
   -5.6682    3.9391    0.0000 C   0  0  0  0  0  0  0  0  0  0  0  0
   -4.2009    4.2510    0.0000 C   0  0  0  0  0  0  0  0  0  0  0  0
   -3.7374    5.6776    0.0000 C   0  0  0  0  0  0  0  0  0  0  0  0
   -4.7411    6.7923    0.0000 C   0  0  0  0  0  0  0  0  0  0  0  0
   -4.2776    8.2189    0.0000 C   0  0  0  0  0  0  0  0  0  0  0  0
   -5.1593    9.4324    0.0000 N   0  0  0  0  0  0  0  0  0  0  0  0
   -4.2776   10.6460    0.0000 N   0  0  0  0  0  0  0  0  0  0  0  0
   -2.8510   10.1824    0.0000 N   0  0  0  0  0  0  0  0  0  0  0  0
   -2.8510    8.6824    0.0000 N   0  0  0  0  0  0  0  0  0  0  0  0
   -1.6375    7.8008    0.0000 C   0  0  0  0  0  0  0  0  0  0  0  0
   -1.7943    6.3090    0.0000 C   0  0  0  0  0  0  0  0  0  0  0  0
   -0.5807    5.4273    0.0000 C   0  0  0  0  0  0  0  0  0  0  0  0
    0.7896    6.0374    0.0000 C   0  0  0  0  0  0  0  0  0  0  0  0
    0.9464    7.5292    0.0000 C   0  0  0  0  0  0  0  0  0  0  0  0
   -0.2671    8.4109    0.0000 C   0  0  0  0  0  0  0  0  0  0  0  0
   -6.2083    6.4805    0.0000 C   0  0  0  0  0  0  0  0  0  0  0  0
   -6.6718    5.0539    0.0000 C   0  0  0  0  0  0  0  0  0  0  0  0
   -8.1391    4.7420    0.0000 C   0  0  0  0  0  0  0  0  0  0  0  0
   -8.7492    3.3717    0.0000 N   0  0  0  0  0  0  0  0  0  0  0  0
  -10.2410    3.5285    0.0000 N   0  0  0  0  0  0  0  0  0  0  0  0
  -10.5528    4.9957    0.0000 N   0  0  0  0  0  0  0  0  0  0  0  0
   -9.2538    5.7457    0.0000 N   0  0  0  0  0  0  0  0  0  0  0  0
   -9.0970    7.2375    0.0000 C   0  0  0  0  0  0  0  0  0  0  0  0
   -7.7267    7.8476    0.0000 C   0  0  0  0  0  0  0  0  0  0  0  0
   -7.5699    9.3394    0.0000 C   0  0  0  0  0  0  0  0  0  0  0  0
   -8.7834   10.2210    0.0000 C   0  0  0  0  0  0  0  0  0  0  0  0
   -8.6266   11.7128    0.0000 C   0  0  0  0  0  0  0  0  0  0  0  0
   -7.2563   12.3229    0.0000 C   0  0  0  0  0  0  0  0  0  0  0  0
   -7.0995   13.8147    0.0000 C   0  0  0  0  0  0  0  0  0  0  0  0
   -8.3130   14.6964    0.0000 C   0  0  0  0  0  0  0  0  0  0  0  0
   -9.6833   14.0863    0.0000 C   0  0  0  0  0  0  0  0  0  0  0  0
   -9.8401   12.5945    0.0000 C   0  0  0  0  0  0  0  0  0  0  0  0
  -10.1537    9.6109    0.0000 C   0  0  0  0  0  0  0  0  0  0  0  0
  -10.3105    8.1192    0.0000 C   0  0  0  0  0  0  0  0  0  0  0  0
  -11.6808    7.5090    0.0000 C   0  0  0  0  0  0  0  0  0  0  0  0
  -12.8944    8.3907    0.0000 C   0  0  0  0  0  0  0  0  0  0  0  0
  -14.2647    7.7806    0.0000 C   0  0  0  0  0  0  0  0  0  0  0  0
  -14.4215    6.2888    0.0000 C   0  0  0  0  0  0  0  0  0  0  0  0
  -13.2079    5.4072    0.0000 C   0  0  0  0  0  0  0  0  0  0  0  0
  -11.8376    6.0173    0.0000 C   0  0  0  0  0  0  0  0  0  0  0  0
   -0.7500    1.2990    0.0000 C   0  0  0  0  0  0  0  0  0  0  0  0
   -1.5000    2.5981    0.0000 O   0  0  0  0  0  0  0  0  0  0  0  0
    0.7500    1.2990    0.0000 N   0  0  0  0  0  0  0  0  0  0  0  0
  1  2  1  0
  2  3  2  0
  3  4  1  0
  4  5  2  0
  5  6  1  0
  6  7  2  0
  6  8  1  0
  8  9  1  0
  9 10  2  0
 10 11  1  0
 11 12  2  0
 12 13  1  0
 13 14  1  0
 14 15  2  0
 15 16  1  0
 16 17  2  0
 17 18  1  0
 18 19  2  0
 19 20  1  0
 20 21  2  0
 21 22  1  0
 22 23  1  0
 23 24  2  0
 24 25  1  0
 25 26  2  0
 26 27  1  0
 27 28  2  0
 17 29  1  0
 29 30  2  0
 30 31  1  0
 31 32  2  0
 32 33  1  0
 33 34  2  0
 34 35  1  0
 35 36  1  0
 36 37  2  0
 37 38  1  0
 38 39  2  0
 39 40  1  0
 40 41  2  0
 41 42  1  0
 42 43  2  0
 43 44  1  0
 44 45  2  0
 39 46  1  0
 46 47  2  0
 47 48  1  0
 48 49  2  0
 49 50  1  0
 50 51  2  0
 51 52  1  0
 52 53  2  0
  5 54  1  0
 54 55  2  0
 54 56  1  0
 56  2  1  0
 13  9  1  0
 30 14  1  0
 35 31  1  0
 47 36  1  0
 53 48  1  0
 22 18  1  0
 28 23  1  0
 45 40  1  0
M  END
>  <Title>  (1093) 
idABQAgen7

$$$$

     RDKit          2D

 53 60  0  0  0  0  0  0  0  0999 V2000
   -8.2500   -6.4952    0.0000 C   0  0  0  0  0  0  0  0  0  0  0  0
   -7.5000   -5.1962    0.0000 C   0  0  0  0  0  0  0  0  0  0  0  0
   -6.0000   -5.1962    0.0000 C   0  0  0  0  0  0  0  0  0  0  0  0
   -5.2500   -3.8971    0.0000 C   0  0  0  0  0  0  0  0  0  0  0  0
   -6.0000   -2.5981    0.0000 C   0  0  0  0  0  0  0  0  0  0  0  0
   -5.2500   -1.2990    0.0000 N   0  0  0  0  0  0  0  0  0  0  0  0
   -6.0000    0.0000    0.0000 N   0  0  0  0  0  0  0  0  0  0  0  0
   -5.2500    1.2990    0.0000 N   0  0  0  0  0  0  0  0  0  0  0  0
   -3.7500    1.2990    0.0000 N   0  0  0  0  0  0  0  0  0  0  0  0
   -3.0000    0.0000    0.0000 N   0  0  0  0  0  0  0  0  0  0  0  0
   -3.7500   -1.2990    0.0000 N   0  0  0  0  0  0  0  0  0  0  0  0
   -3.0000   -2.5981    0.0000 C   0  0  0  0  0  0  0  0  0  0  0  0
   -3.7500   -3.8971    0.0000 C   0  0  0  0  0  0  0  0  0  0  0  0
   -3.0000   -5.1962    0.0000 C   0  0  0  0  0  0  0  0  0  0  0  0
   -1.5000   -5.1962    0.0000 C   0  0  0  0  0  0  0  0  0  0  0  0
   -0.7500   -6.4952    0.0000 C   0  0  0  0  0  0  0  0  0  0  0  0
   -1.5000   -7.7942    0.0000 C   0  0  0  0  0  0  0  0  0  0  0  0
   -0.7500   -9.0933    0.0000 C   0  0  0  0  0  0  0  0  0  0  0  0
    0.7500   -9.0933    0.0000 C   0  0  0  0  0  0  0  0  0  0  0  0
    1.5000   -7.7942    0.0000 C   0  0  0  0  0  0  0  0  0  0  0  0
    0.7500   -6.4952    0.0000 C   0  0  0  0  0  0  0  0  0  0  0  0
   -0.7500   -3.8971    0.0000 C   0  0  0  0  0  0  0  0  0  0  0  0
   -1.5000   -2.5981    0.0000 C   0  0  0  0  0  0  0  0  0  0  0  0
   -0.7500   -1.2990    0.0000 C   0  0  0  0  0  0  0  0  0  0  0  0
   -1.3601    0.0713    0.0000 N   0  0  0  0  0  0  0  0  0  0  0  0
   -0.2454    1.0750    0.0000 N   0  0  0  0  0  0  0  0  0  0  0  0
    1.0537    0.3250    0.0000 N   0  0  0  0  0  0  0  0  0  0  0  0
    0.7418   -1.1422    0.0000 N   0  0  0  0  0  0  0  0  0  0  0  0
    1.7455   -2.2570    0.0000 C   0  0  0  0  0  0  0  0  0  0  0  0
    1.2820   -3.6835    0.0000 C   0  0  0  0  0  0  0  0  0  0  0  0
    2.2856   -4.7983    0.0000 C   0  0  0  0  0  0  0  0  0  0  0  0
    3.7529   -4.4864    0.0000 C   0  0  0  0  0  0  0  0  0  0  0  0
    4.7566   -5.6011    0.0000 C   0  0  0  0  0  0  0  0  0  0  0  0
    4.2930   -7.0277    0.0000 C   0  0  0  0  0  0  0  0  0  0  0  0
    5.2967   -8.1424    0.0000 C   0  0  0  0  0  0  0  0  0  0  0  0
    6.7640   -7.8305    0.0000 C   0  0  0  0  0  0  0  0  0  0  0  0
    7.2275   -6.4040    0.0000 C   0  0  0  0  0  0  0  0  0  0  0  0
    6.2238   -5.2892    0.0000 C   0  0  0  0  0  0  0  0  0  0  0  0
    4.2164   -3.0598    0.0000 C   0  0  0  0  0  0  0  0  0  0  0  0
    3.2127   -1.9451    0.0000 C   0  0  0  0  0  0  0  0  0  0  0  0
    3.6762   -0.5185    0.0000 C   0  0  0  0  0  0  0  0  0  0  0  0
    5.1434   -0.2066    0.0000 C   0  0  0  0  0  0  0  0  0  0  0  0
    5.6070    1.2199    0.0000 C   0  0  0  0  0  0  0  0  0  0  0  0
    4.6033    2.3347    0.0000 C   0  0  0  0  0  0  0  0  0  0  0  0
    5.0668    3.7612    0.0000 N   0  0  0  0  0  0  0  0  0  0  0  0
    6.5340    4.0731    0.0000 C   0  0  0  0  0  0  0  0  0  0  0  0
    7.5377    2.9584    0.0000 O   0  0  0  0  0  0  0  0  0  0  0  0
    6.9975    5.4997    0.0000 N   0  0  0  0  0  0  0  0  0  0  0  0
    8.4648    5.8116    0.0000 O   0  0  0  0  0  0  0  0  0  0  0  0
    3.1361    2.0228    0.0000 C   0  0  0  0  0  0  0  0  0  0  0  0
    2.6725    0.5962    0.0000 C   0  0  0  0  0  0  0  0  0  0  0  0
   -7.5000   -2.5981    0.0000 N   0  0  0  0  0  0  0  0  0  0  0  0
   -8.2500   -3.8971    0.0000 C   0  0  0  0  0  0  0  0  0  0  0  0
  1  2  1  0
  2  3  2  0
  3  4  1  0
  4  5  2  0
  5  6  1  0
  6  7  1  0
  7  8  2  0
  8  9  1  0
  9 10  2  0
 10 11  1  0
 11 12  1  0
 12 13  2  0
 13 14  1  0
 14 15  2  0
 15 16  1  0
 16 17  2  0
 17 18  1  0
 18 19  2  0
 19 20  1  0
 20 21  2  0
 15 22  1  0
 22 23  2  0
 23 24  1  0
 24 25  2  0
 25 26  1  0
 26 27  2  0
 27 28  1  0
 28 29  1  0
 29 30  2  0
 30 31  1  0
 31 32  2  0
 32 33  1  0
 33 34  2  0
 34 35  1  0
 35 36  2  0
 36 37  1  0
 37 38  2  0
 32 39  1  0
 39 40  2  0
 40 41  1  0
 41 42  2  0
 42 43  1  0
 43 44  2  0
 44 45  1  0
 45 46  1  0
 46 47  2  0
 46 48  1  0
 48 49  1  0
 44 50  1  0
 50 51  1  0
  5 52  1  0
 52 53  2  0
 53  2  1  0
 11  6  1  0
 23 12  1  0
 28 24  1  0
 40 29  1  0
 51 41  1  0
 21 16  1  0
 38 33  1  0
M  END
>  <Title>  (1094) 
idABQBgen7

$$$$

     RDKit          2D

 11 11  0  0  0  0  0  0  0  0999 V2000
    4.4429   -1.2990    0.0000 O   0  0  0  0  0  0  0  0  0  0  0  0
    3.6929    0.0000    0.0000 C   0  0  0  0  0  0  0  0  0  0  0  0
    2.1929    0.0000    0.0000 C   0  0  0  0  0  0  0  0  0  0  0  0
    1.6798    1.4095    0.0000 C   0  0  0  0  0  0  0  0  0  0  0  0
    0.3808    2.1595    0.0000 C   0  0  0  0  0  0  0  0  0  0  0  0
   -1.0964    1.8991    0.0000 C   0  0  0  0  0  0  0  0  0  0  0  0
   -2.0606    0.7500    0.0000 C   0  0  0  0  0  0  0  0  0  0  0  0
   -2.0606   -0.7500    0.0000 C   0  0  0  0  0  0  0  0  0  0  0  0
   -1.0964   -1.8991    0.0000 C   0  0  0  0  0  0  0  0  0  0  0  0
    0.3808   -2.1595    0.0000 C   0  0  0  0  0  0  0  0  0  0  0  0
    1.6798   -1.4095    0.0000 C   0  0  0  0  0  0  0  0  0  0  0  0
  1  2  1  0
  2  3  1  0
  3  4  1  0
  4  5  1  0
  5  6  1  0
  6  7  1  0
  7  8  1  0
  8  9  1  0
  9 10  1  0
 10 11  1  0
 11  3  1  0
M  END
>  <Title>  (1095) 
idABQCgen7

$$$$

     RDKit          2D

 22 24  0  0  0  0  0  0  0  0999 V2000
   10.0355    0.6881    0.0000 C   0  0  0  0  0  0  0  0  0  0  0  0
    8.5683    0.3762    0.0000 C   0  0  0  0  0  0  0  0  0  0  0  0
    7.4536    1.3799    0.0000 C   0  0  0  0  0  0  0  0  0  0  0  0
    6.1545    0.6299    0.0000 C   0  0  0  0  0  0  0  0  0  0  0  0
    6.4664   -0.8373    0.0000 C   0  0  0  0  0  0  0  0  0  0  0  0
    5.4627   -1.9520    0.0000 C   0  0  0  0  0  0  0  0  0  0  0  0
    5.9262   -3.3786    0.0000 O   0  0  0  0  0  0  0  0  0  0  0  0
    3.9955   -1.6402    0.0000 N   0  0  0  0  0  0  0  0  0  0  0  0
    2.9918   -2.7549    0.0000 C   0  0  0  0  0  0  0  0  0  0  0  0
    3.3037   -4.2221    0.0000 N   0  0  0  0  0  0  0  0  0  0  0  0
    2.0046   -4.9721    0.0000 C   0  0  0  0  0  0  0  0  0  0  0  0
    0.8899   -3.9684    0.0000 N   0  0  0  0  0  0  0  0  0  0  0  0
    1.5000   -2.5981    0.0000 N   0  0  0  0  0  0  0  0  0  0  0  0
    0.7500   -1.2990    0.0000 C   0  0  0  0  0  0  0  0  0  0  0  0
    1.5000    0.0000    0.0000 C   0  0  0  0  0  0  0  0  0  0  0  0
    0.7500    1.2990    0.0000 C   0  0  0  0  0  0  0  0  0  0  0  0
   -0.7500    1.2990    0.0000 C   0  0  0  0  0  0  0  0  0  0  0  0
   -1.5000    2.5981    0.0000 C   0  0  0  0  0  0  0  0  0  0  0  0
   -1.5000    0.0000    0.0000 C   0  0  0  0  0  0  0  0  0  0  0  0
   -3.0000    0.0000    0.0000 O   0  0  0  0  0  0  0  0  0  0  0  0
   -0.7500   -1.2990    0.0000 N   0  0  0  0  0  0  0  0  0  0  0  0
    7.9582   -0.9941    0.0000 N   0  0  0  0  0  0  0  0  0  0  0  0
  1  2  1  0
  2  3  2  0
  3  4  1  0
  4  5  2  0
  5  6  1  0
  6  7  2  0
  6  8  1  0
  8  9  1  0
  9 10  2  0
 10 11  1  0
 11 12  2  0
 12 13  1  0
 13 14  1  0
 14 15  2  0
 15 16  1  0
 16 17  2  0
 17 18  1  0
 17 19  1  0
 19 20  2  0
 19 21  1  0
  5 22  1  0
 22  2  1  0
 13  9  1  0
 21 14  1  0
M  END
>  <Title>  (1096) 
idABQDgen7

$$$$

     RDKit          2D

 57 64  0  0  0  0  0  0  0  0999 V2000
    3.9786   -1.2990    0.0000 C   0  0  0  0  0  0  0  0  0  0  0  0
    3.2286   -0.0000    0.0000 O   0  0  0  0  0  0  0  0  0  0  0  0
    1.7286    0.0000    0.0000 C   0  0  0  0  0  0  0  0  0  0  0  0
    1.0777    1.3515    0.0000 C   0  0  0  0  0  0  0  0  0  0  0  0
   -0.3846    1.6852    0.0000 C   0  0  0  0  0  0  0  0  0  0  0  0
   -1.5574    0.7500    0.0000 C   0  0  0  0  0  0  0  0  0  0  0  0
   -2.9088    1.4008    0.0000 N   0  0  0  0  0  0  0  0  0  0  0  0
   -4.2297    0.6900    0.0000 N   0  0  0  0  0  0  0  0  0  0  0  0
   -5.3139    1.7266    0.0000 N   0  0  0  0  0  0  0  0  0  0  0  0
   -4.6631    3.0781    0.0000 N   0  0  0  0  0  0  0  0  0  0  0  0
   -3.1767    2.8767    0.0000 C   0  0  0  0  0  0  0  0  0  0  0  0
   -2.1401    3.9609    0.0000 N   0  0  0  0  0  0  0  0  0  0  0  0
   -2.5607    5.4007    0.0000 C   0  0  0  0  0  0  0  0  0  0  0  0
   -4.0180    5.7563    0.0000 O   0  0  0  0  0  0  0  0  0  0  0  0
   -1.5241    6.4849    0.0000 C   0  0  0  0  0  0  0  0  0  0  0  0
   -0.0669    6.1293    0.0000 C   0  0  0  0  0  0  0  0  0  0  0  0
    0.9697    7.2135    0.0000 C   0  0  0  0  0  0  0  0  0  0  0  0
    0.5491    8.6533    0.0000 C   0  0  0  0  0  0  0  0  0  0  0  0
   -0.9082    9.0089    0.0000 C   0  0  0  0  0  0  0  0  0  0  0  0
   -1.9448    7.9247    0.0000 C   0  0  0  0  0  0  0  0  0  0  0  0
   -3.4020    8.2804    0.0000 C   0  0  0  0  0  0  0  0  0  0  0  0
   -4.5463    7.3105    0.0000 N   0  0  0  0  0  0  0  0  0  0  0  0
   -5.8223    8.0990    0.0000 N   0  0  0  0  0  0  0  0  0  0  0  0
   -5.4667    9.5562    0.0000 N   0  0  0  0  0  0  0  0  0  0  0  0
   -3.9708    9.6683    0.0000 N   0  0  0  0  0  0  0  0  0  0  0  0
   -3.1823   10.9443    0.0000 C   0  0  0  0  0  0  0  0  0  0  0  0
   -1.6830   10.8995    0.0000 C   0  0  0  0  0  0  0  0  0  0  0  0
   -0.8945   12.1755    0.0000 C   0  0  0  0  0  0  0  0  0  0  0  0
   -1.6053   13.4964    0.0000 C   0  0  0  0  0  0  0  0  0  0  0  0
   -0.8167   14.7724    0.0000 C   0  0  0  0  0  0  0  0  0  0  0  0
   -3.1046   13.5412    0.0000 C   0  0  0  0  0  0  0  0  0  0  0  0
   -3.8154   14.8621    0.0000 O   0  0  0  0  0  0  0  0  0  0  0  0
   -3.8931   12.2652    0.0000 N   0  0  0  0  0  0  0  0  0  0  0  0
   -1.5574   -0.7500    0.0000 N   0  0  0  0  0  0  0  0  0  0  0  0
   -2.9088   -1.4008    0.0000 C   0  0  0  0  0  0  0  0  0  0  0  0
   -3.0209   -2.8966    0.0000 C   0  0  0  0  0  0  0  0  0  0  0  0
   -1.7816   -3.7416    0.0000 O   0  0  0  0  0  0  0  0  0  0  0  0
   -4.3724   -3.5475    0.0000 N   0  0  0  0  0  0  0  0  0  0  0  0
   -4.4845   -5.0433    0.0000 C   0  0  0  0  0  0  0  0  0  0  0  0
   -3.3402   -6.0132    0.0000 N   0  0  0  0  0  0  0  0  0  0  0  0
   -3.9091   -7.4011    0.0000 N   0  0  0  0  0  0  0  0  0  0  0  0
   -5.4049   -7.2890    0.0000 N   0  0  0  0  0  0  0  0  0  0  0  0
   -5.7605   -5.8318    0.0000 N   0  0  0  0  0  0  0  0  0  0  0  0
   -7.1485   -5.2630    0.0000 C   0  0  0  0  0  0  0  0  0  0  0  0
   -7.3498   -3.7765    0.0000 C   0  0  0  0  0  0  0  0  0  0  0  0
   -8.7378   -3.2077    0.0000 C   0  0  0  0  0  0  0  0  0  0  0  0
   -9.9244   -4.1253    0.0000 C   0  0  0  0  0  0  0  0  0  0  0  0
  -11.3123   -3.5564    0.0000 C   0  0  0  0  0  0  0  0  0  0  0  0
  -11.5137   -2.0700    0.0000 C   0  0  0  0  0  0  0  0  0  0  0  0
  -12.9016   -1.5012    0.0000 C   0  0  0  0  0  0  0  0  0  0  0  0
  -14.0882   -2.4188    0.0000 C   0  0  0  0  0  0  0  0  0  0  0  0
  -13.8869   -3.9052    0.0000 C   0  0  0  0  0  0  0  0  0  0  0  0
  -12.4989   -4.4740    0.0000 C   0  0  0  0  0  0  0  0  0  0  0  0
   -9.7230   -5.6117    0.0000 C   0  0  0  0  0  0  0  0  0  0  0  0
   -8.3351   -6.1805    0.0000 C   0  0  0  0  0  0  0  0  0  0  0  0
   -0.3846   -1.6852    0.0000 C   0  0  0  0  0  0  0  0  0  0  0  0
    1.0777   -1.3515    0.0000 C   0  0  0  0  0  0  0  0  0  0  0  0
  1  2  1  0
  2  3  1  0
  3  4  2  0
  4  5  1  0
  5  6  2  0
  6  7  1  0
  7  8  1  0
  8  9  2  0
  9 10  1  0
 10 11  2  0
 11 12  1  0
 12 13  1  0
 13 14  2  0
 13 15  1  0
 15 16  1  0
 16 17  1  0
 17 18  1  0
 18 19  1  0
 19 20  1  0
 20 21  1  0
 21 22  2  0
 22 23  1  0
 23 24  2  0
 24 25  1  0
 25 26  1  0
 26 27  2  0
 27 28  1  0
 28 29  2  0
 29 30  1  0
 29 31  1  0
 31 32  2  0
 31 33  1  0
  6 34  1  0
 34 35  1  0
 35 36  1  0
 36 37  2  0
 36 38  1  0
 38 39  1  0
 39 40  2  0
 40 41  1  0
 41 42  2  0
 42 43  1  0
 43 44  1  0
 44 45  2  0
 45 46  1  0
 46 47  2  0
 47 48  1  0
 48 49  2  0
 49 50  1  0
 50 51  2  0
 51 52  1  0
 52 53  2  0
 47 54  1  0
 54 55  2  0
 34 56  1  0
 56 57  2  0
 57  3  1  0
 11  7  1  0
 20 15  1  0
 25 21  1  0
 33 26  1  0
 43 39  1  0
 55 44  1  0
 53 48  1  0
M  END
>  <Title>  (1097) 
idABQEgen7

$$$$

     RDKit          2D

 25 28  0  0  0  0  0  0  0  0999 V2000
    3.0000    0.0000    0.0000 C   0  0  0  0  0  0  0  0  0  0  0  0
    1.5000    0.0000    0.0000 C   0  0  0  0  0  0  0  0  0  0  0  0
    0.7500    1.2990    0.0000 C   0  0  0  0  0  0  0  0  0  0  0  0
   -0.7500    1.2990    0.0000 C   0  0  0  0  0  0  0  0  0  0  0  0
   -1.5000    0.0000    0.0000 C   0  0  0  0  0  0  0  0  0  0  0  0
   -3.0000    0.0000    0.0000 C   0  0  0  0  0  0  0  0  0  0  0  0
   -3.8817   -1.2135    0.0000 N   0  0  0  0  0  0  0  0  0  0  0  0
   -5.3083   -0.7500    0.0000 N   0  0  0  0  0  0  0  0  0  0  0  0
   -5.3083    0.7500    0.0000 N   0  0  0  0  0  0  0  0  0  0  0  0
   -3.8817    1.2135    0.0000 N   0  0  0  0  0  0  0  0  0  0  0  0
   -3.4182    2.6401    0.0000 C   0  0  0  0  0  0  0  0  0  0  0  0
   -1.9509    2.9520    0.0000 C   0  0  0  0  0  0  0  0  0  0  0  0
   -1.4874    4.3786    0.0000 C   0  0  0  0  0  0  0  0  0  0  0  0
   -2.4911    5.4933    0.0000 C   0  0  0  0  0  0  0  0  0  0  0  0
   -2.0276    6.9199    0.0000 C   0  0  0  0  0  0  0  0  0  0  0  0
   -0.5604    7.2317    0.0000 C   0  0  0  0  0  0  0  0  0  0  0  0
   -0.0968    8.6583    0.0000 C   0  0  0  0  0  0  0  0  0  0  0  0
   -1.1005    9.7730    0.0000 C   0  0  0  0  0  0  0  0  0  0  0  0
   -2.5677    9.4612    0.0000 C   0  0  0  0  0  0  0  0  0  0  0  0
   -3.0313    8.0346    0.0000 C   0  0  0  0  0  0  0  0  0  0  0  0
   -3.9583    5.1814    0.0000 C   0  0  0  0  0  0  0  0  0  0  0  0
   -4.4218    3.7548    0.0000 C   0  0  0  0  0  0  0  0  0  0  0  0
   -0.7500   -1.2990    0.0000 C   0  0  0  0  0  0  0  0  0  0  0  0
   -1.5000   -2.5981    0.0000 O   0  0  0  0  0  0  0  0  0  0  0  0
    0.7500   -1.2990    0.0000 N   0  0  0  0  0  0  0  0  0  0  0  0
  1  2  1  0
  2  3  2  0
  3  4  1  0
  4  5  2  0
  5  6  1  0
  6  7  2  0
  7  8  1  0
  8  9  2  0
  9 10  1  0
 10 11  1  0
 11 12  2  0
 12 13  1  0
 13 14  2  0
 14 15  1  0
 15 16  2  0
 16 17  1  0
 17 18  2  0
 18 19  1  0
 19 20  2  0
 14 21  1  0
 21 22  2  0
  5 23  1  0
 23 24  2  0
 23 25  1  0
 25  2  1  0
 10  6  1  0
 22 11  1  0
 20 15  1  0
M  END
>  <Title>  (1098) 
idABQFgen7

$$$$

     RDKit          2D

 30 33  0  0  0  0  0  0  0  0999 V2000
    3.7500   -1.2990    0.0000 C   0  0  0  0  0  0  0  0  0  0  0  0
    3.0000    0.0000    0.0000 O   0  0  0  0  0  0  0  0  0  0  0  0
    1.5000    0.0000    0.0000 C   0  0  0  0  0  0  0  0  0  0  0  0
    0.7500   -1.2990    0.0000 C   0  0  0  0  0  0  0  0  0  0  0  0
   -0.7500   -1.2990    0.0000 C   0  0  0  0  0  0  0  0  0  0  0  0
   -1.5000    0.0000    0.0000 C   0  0  0  0  0  0  0  0  0  0  0  0
   -3.0000    0.0000    0.0000 N   0  0  0  0  0  0  0  0  0  0  0  0
   -3.7500    1.2990    0.0000 C   0  0  0  0  0  0  0  0  0  0  0  0
   -3.0000    2.5981    0.0000 O   0  0  0  0  0  0  0  0  0  0  0  0
   -5.2500    1.2990    0.0000 N   0  0  0  0  0  0  0  0  0  0  0  0
   -6.0000    2.5981    0.0000 C   0  0  0  0  0  0  0  0  0  0  0  0
   -7.5000    2.5981    0.0000 C   0  0  0  0  0  0  0  0  0  0  0  0
   -8.2500    1.2990    0.0000 N   0  0  0  0  0  0  0  0  0  0  0  0
   -9.7500    1.2990    0.0000 C   0  0  0  0  0  0  0  0  0  0  0  0
  -10.5000    2.5981    0.0000 C   0  0  0  0  0  0  0  0  0  0  0  0
  -12.0000    2.5981    0.0000 C   0  0  0  0  0  0  0  0  0  0  0  0
  -12.7500    1.2990    0.0000 C   0  0  0  0  0  0  0  0  0  0  0  0
  -14.2500    1.2990    0.0000 C   0  0  0  0  0  0  0  0  0  0  0  0
  -15.0000    2.5981    0.0000 C   0  0  0  0  0  0  0  0  0  0  0  0
  -16.5000    2.5981    0.0000 C   0  0  0  0  0  0  0  0  0  0  0  0
  -17.2500    1.2990    0.0000 C   0  0  0  0  0  0  0  0  0  0  0  0
  -16.5000    0.0000    0.0000 C   0  0  0  0  0  0  0  0  0  0  0  0
  -15.0000    0.0000    0.0000 C   0  0  0  0  0  0  0  0  0  0  0  0
  -12.0000    0.0000    0.0000 C   0  0  0  0  0  0  0  0  0  0  0  0
  -10.5000    0.0000    0.0000 C   0  0  0  0  0  0  0  0  0  0  0  0
   -7.5000    0.0000    0.0000 C   0  0  0  0  0  0  0  0  0  0  0  0
   -6.0000    0.0000    0.0000 C   0  0  0  0  0  0  0  0  0  0  0  0
   -0.7500    1.2990    0.0000 C   0  0  0  0  0  0  0  0  0  0  0  0
   -1.5000    2.5981    0.0000 O   0  0  0  0  0  0  0  0  0  0  0  0
    0.7500    1.2990    0.0000 N   0  0  0  0  0  0  0  0  0  0  0  0
  1  2  1  0
  2  3  1  0
  3  4  2  0
  4  5  1  0
  5  6  2  0
  6  7  1  0
  7  8  1  0
  8  9  2  0
  8 10  1  0
 10 11  1  0
 11 12  2  0
 12 13  1  0
 13 14  1  0
 14 15  2  0
 15 16  1  0
 16 17  2  0
 17 18  1  0
 18 19  2  0
 19 20  1  0
 20 21  2  0
 21 22  1  0
 22 23  2  0
 17 24  1  0
 24 25  2  0
 13 26  1  0
 26 27  1  0
  6 28  1  0
 28 29  2  0
 28 30  1  0
 30  3  1  0
 27 10  1  0
 25 14  1  0
 23 18  1  0
M  END
>  <Title>  (1099) 
idABQGgen7

$$$$

     RDKit          2D

 24 26  0  0  0  0  0  0  0  0999 V2000
    3.0000    0.0000    0.0000 C   0  0  0  0  0  0  0  0  0  0  0  0
    1.5000    0.0000    0.0000 C   0  0  0  0  0  0  0  0  0  0  0  0
    0.7500    1.2990    0.0000 C   0  0  0  0  0  0  0  0  0  0  0  0
   -0.7500    1.2990    0.0000 C   0  0  0  0  0  0  0  0  0  0  0  0
   -1.5000    0.0000    0.0000 C   0  0  0  0  0  0  0  0  0  0  0  0
   -3.0000    0.0000    0.0000 C   0  0  0  0  0  0  0  0  0  0  0  0
   -3.8817   -1.2135    0.0000 N   0  0  0  0  0  0  0  0  0  0  0  0
   -5.3083   -0.7500    0.0000 N   0  0  0  0  0  0  0  0  0  0  0  0
   -5.3083    0.7500    0.0000 N   0  0  0  0  0  0  0  0  0  0  0  0
   -3.8817    1.2135    0.0000 N   0  0  0  0  0  0  0  0  0  0  0  0
   -3.4182    2.6401    0.0000 C   0  0  0  0  0  0  0  0  0  0  0  0
   -1.9509    2.9520    0.0000 C   0  0  0  0  0  0  0  0  0  0  0  0
   -1.4874    4.3786    0.0000 C   0  0  0  0  0  0  0  0  0  0  0  0
   -2.4911    5.4933    0.0000 C   0  0  0  0  0  0  0  0  0  0  0  0
   -2.0276    6.9199    0.0000 C   0  0  0  0  0  0  0  0  0  0  0  0
   -3.0313    8.0346    0.0000 O   0  0  0  0  0  0  0  0  0  0  0  0
   -0.5604    7.2317    0.0000 N   0  0  0  0  0  0  0  0  0  0  0  0
   -0.0968    8.6583    0.0000 O   0  0  0  0  0  0  0  0  0  0  0  0
   -3.9583    5.1814    0.0000 N   0  0  0  0  0  0  0  0  0  0  0  0
   -4.4218    3.7548    0.0000 C   0  0  0  0  0  0  0  0  0  0  0  0
   -5.8891    3.4430    0.0000 O   0  0  0  0  0  0  0  0  0  0  0  0
   -0.7500   -1.2990    0.0000 C   0  0  0  0  0  0  0  0  0  0  0  0
   -1.5000   -2.5981    0.0000 O   0  0  0  0  0  0  0  0  0  0  0  0
    0.7500   -1.2990    0.0000 N   0  0  0  0  0  0  0  0  0  0  0  0
  1  2  1  0
  2  3  2  0
  3  4  1  0
  4  5  2  0
  5  6  1  0
  6  7  2  0
  7  8  1  0
  8  9  2  0
  9 10  1  0
 10 11  1  0
 11 12  2  0
 12 13  1  0
 13 14  2  0
 14 15  1  0
 15 16  2  0
 15 17  1  0
 17 18  1  0
 14 19  1  0
 19 20  1  0
 20 21  2  0
  5 22  1  0
 22 23  2  0
 22 24  1  0
 24  2  1  0
 10  6  1  0
 20 11  1  0
M  END
>  <Title>  (1100) 
idABQHgen7

$$$$

     RDKit          2D

 21 23  0  0  0  0  0  0  0  0999 V2000
    3.7500   -1.2990    0.0000 C   0  0  0  0  0  0  0  0  0  0  0  0
    3.0000    0.0000    0.0000 O   0  0  0  0  0  0  0  0  0  0  0  0
    1.5000    0.0000    0.0000 C   0  0  0  0  0  0  0  0  0  0  0  0
    0.7500   -1.2990    0.0000 C   0  0  0  0  0  0  0  0  0  0  0  0
   -0.7500   -1.2990    0.0000 C   0  0  0  0  0  0  0  0  0  0  0  0
   -1.5000    0.0000    0.0000 C   0  0  0  0  0  0  0  0  0  0  0  0
   -3.0000    0.0000    0.0000 C   0  0  0  0  0  0  0  0  0  0  0  0
   -3.7500    1.2990    0.0000 C   0  0  0  0  0  0  0  0  0  0  0  0
   -5.2500    1.2990    0.0000 C   0  0  0  0  0  0  0  0  0  0  0  0
   -6.0000    0.0000    0.0000 C   0  0  0  0  0  0  0  0  0  0  0  0
   -7.5000    0.0000    0.0000 C   0  0  0  0  0  0  0  0  0  0  0  0
   -8.2500    1.2990    0.0000 C   0  0  0  0  0  0  0  0  0  0  0  0
   -9.7500    1.2990    0.0000 C   0  0  0  0  0  0  0  0  0  0  0  0
  -10.5000    0.0000    0.0000 C   0  0  0  0  0  0  0  0  0  0  0  0
   -9.7500   -1.2990    0.0000 C   0  0  0  0  0  0  0  0  0  0  0  0
   -8.2500   -1.2990    0.0000 C   0  0  0  0  0  0  0  0  0  0  0  0
   -5.2500   -1.2990    0.0000 C   0  0  0  0  0  0  0  0  0  0  0  0
   -6.0000   -2.5981    0.0000 O   0  0  0  0  0  0  0  0  0  0  0  0
   -3.7500   -1.2990    0.0000 N   0  0  0  0  0  0  0  0  0  0  0  0
   -0.7500    1.2990    0.0000 C   0  0  0  0  0  0  0  0  0  0  0  0
    0.7500    1.2990    0.0000 C   0  0  0  0  0  0  0  0  0  0  0  0
  1  2  1  0
  2  3  1  0
  3  4  2  0
  4  5  1  0
  5  6  2  0
  6  7  1  0
  7  8  2  0
  8  9  1  0
  9 10  2  0
 10 11  1  0
 11 12  2  0
 12 13  1  0
 13 14  2  0
 14 15  1  0
 15 16  2  0
 10 17  1  0
 17 18  2  0
 17 19  1  0
  6 20  1  0
 20 21  2  0
 21  3  1  0
 19  7  1  0
 16 11  1  0
M  END
>  <Title>  (1101) 
idABQIgen7

$$$$

     RDKit          2D

 15 15  0  0  0  0  0  0  0  0999 V2000
    4.8705    0.0000    0.0000 O   0  0  0  0  0  0  0  0  0  0  0  0
    3.3705    0.0000    0.0000 C   0  0  0  0  0  0  0  0  0  0  0  0
    3.0367   -1.4624    0.0000 C   0  0  0  0  0  0  0  0  0  0  0  0
    2.1015   -2.6351    0.0000 C   0  0  0  0  0  0  0  0  0  0  0  0
    0.7500   -3.2860    0.0000 C   0  0  0  0  0  0  0  0  0  0  0  0
   -0.7500   -3.2860    0.0000 C   0  0  0  0  0  0  0  0  0  0  0  0
   -2.1015   -2.6351    0.0000 C   0  0  0  0  0  0  0  0  0  0  0  0
   -3.0367   -1.4624    0.0000 C   0  0  0  0  0  0  0  0  0  0  0  0
   -3.3705    0.0000    0.0000 C   0  0  0  0  0  0  0  0  0  0  0  0
   -3.0367    1.4624    0.0000 C   0  0  0  0  0  0  0  0  0  0  0  0
   -2.1015    2.6351    0.0000 C   0  0  0  0  0  0  0  0  0  0  0  0
   -0.7500    3.2860    0.0000 C   0  0  0  0  0  0  0  0  0  0  0  0
    0.7500    3.2860    0.0000 C   0  0  0  0  0  0  0  0  0  0  0  0
    2.1015    2.6351    0.0000 C   0  0  0  0  0  0  0  0  0  0  0  0
    3.0367    1.4624    0.0000 C   0  0  0  0  0  0  0  0  0  0  0  0
  1  2  1  0
  2  3  2  0
  3  4  1  0
  4  5  2  0
  5  6  1  0
  6  7  2  0
  7  8  1  0
  8  9  2  0
  9 10  1  0
 10 11  2  0
 11 12  1  0
 12 13  2  0
 13 14  1  0
 14 15  2  0
 15  2  1  0
M  END
>  <Title>  (1102) 
idABQJgen7

$$$$

     RDKit          2D

 33 37  0  0  0  0  0  0  0  0999 V2000
    3.0000    0.0000    0.0000 C   0  0  0  0  0  0  0  0  0  0  0  0
    1.5000    0.0000    0.0000 C   0  0  0  0  0  0  0  0  0  0  0  0
    0.7500    1.2990    0.0000 C   0  0  0  0  0  0  0  0  0  0  0  0
   -0.7500    1.2990    0.0000 C   0  0  0  0  0  0  0  0  0  0  0  0
   -1.5000    0.0000    0.0000 C   0  0  0  0  0  0  0  0  0  0  0  0
   -3.0000    0.0000    0.0000 C   0  0  0  0  0  0  0  0  0  0  0  0
   -3.8817   -1.2135    0.0000 N   0  0  0  0  0  0  0  0  0  0  0  0
   -5.3083   -0.7500    0.0000 N   0  0  0  0  0  0  0  0  0  0  0  0
   -5.3083    0.7500    0.0000 N   0  0  0  0  0  0  0  0  0  0  0  0
   -3.8817    1.2135    0.0000 N   0  0  0  0  0  0  0  0  0  0  0  0
   -3.4182    2.6401    0.0000 C   0  0  0  0  0  0  0  0  0  0  0  0
   -4.2998    3.8536    0.0000 C   0  0  0  0  0  0  0  0  0  0  0  0
   -3.4182    5.0672    0.0000 C   0  0  0  0  0  0  0  0  0  0  0  0
   -1.9916    4.6036    0.0000 C   0  0  0  0  0  0  0  0  0  0  0  0
   -0.7780    5.4853    0.0000 C   0  0  0  0  0  0  0  0  0  0  0  0
    0.5923    4.8752    0.0000 O   0  0  0  0  0  0  0  0  0  0  0  0
   -0.9348    6.9771    0.0000 N   0  0  0  0  0  0  0  0  0  0  0  0
    0.2787    7.8588    0.0000 C   0  0  0  0  0  0  0  0  0  0  0  0
    1.7053    7.3952    0.0000 N   0  0  0  0  0  0  0  0  0  0  0  0
    2.5870    8.6088    0.0000 N   0  0  0  0  0  0  0  0  0  0  0  0
    1.7053    9.8223    0.0000 N   0  0  0  0  0  0  0  0  0  0  0  0
    0.2787    9.3588    0.0000 N   0  0  0  0  0  0  0  0  0  0  0  0
   -0.9348   10.2405    0.0000 C   0  0  0  0  0  0  0  0  0  0  0  0
   -2.3052    9.6303    0.0000 C   0  0  0  0  0  0  0  0  0  0  0  0
   -3.5187   10.5120    0.0000 C   0  0  0  0  0  0  0  0  0  0  0  0
   -3.3619   12.0038    0.0000 C   0  0  0  0  0  0  0  0  0  0  0  0
   -1.9916   12.6139    0.0000 C   0  0  0  0  0  0  0  0  0  0  0  0
   -0.7780   11.7322    0.0000 C   0  0  0  0  0  0  0  0  0  0  0  0
   -1.9916    3.1036    0.0000 C   0  0  0  0  0  0  0  0  0  0  0  0
   -0.7780    2.2220    0.0000 O   0  0  0  0  0  0  0  0  0  0  0  0
   -0.7500   -1.2990    0.0000 C   0  0  0  0  0  0  0  0  0  0  0  0
   -1.5000   -2.5981    0.0000 O   0  0  0  0  0  0  0  0  0  0  0  0
    0.7500   -1.2990    0.0000 N   0  0  0  0  0  0  0  0  0  0  0  0
  1  2  1  0
  2  3  2  0
  3  4  1  0
  4  5  2  0
  5  6  1  0
  6  7  2  0
  7  8  1  0
  8  9  2  0
  9 10  1  0
 10 11  1  0
 11 12  2  0
 12 13  1  0
 13 14  2  0
 14 15  1  0
 15 16  2  0
 15 17  1  0
 17 18  1  0
 18 19  2  0
 19 20  1  0
 20 21  2  0
 21 22  1  0
 22 23  1  0
 23 24  2  0
 24 25  1  0
 25 26  2  0
 26 27  1  0
 27 28  2  0
 14 29  1  0
 29 30  2  0
  5 31  1  0
 31 32  2  0
 31 33  1  0
 33  2  1  0
 10  6  1  0
 29 11  1  0
 22 18  1  0
 28 23  1  0
M  END
>  <Title>  (1103) 
idABQKgen7

$$$$

     RDKit          2D

 27 30  0  0  0  0  0  0  0  0999 V2000
   -0.2487    5.6515    0.0000 C   0  0  0  0  0  0  0  0  0  0  0  0
    0.1935    4.2182    0.0000 C   0  0  0  0  0  0  0  0  0  0  0  0
    1.6559    3.8844    0.0000 C   0  0  0  0  0  0  0  0  0  0  0  0
    2.0980    2.4510    0.0000 C   0  0  0  0  0  0  0  0  0  0  0  0
    1.0777    1.3515    0.0000 C   0  0  0  0  0  0  0  0  0  0  0  0
    1.7286    0.0000    0.0000 C   0  0  0  0  0  0  0  0  0  0  0  0
    1.0777   -1.3515    0.0000 C   0  0  0  0  0  0  0  0  0  0  0  0
   -0.3846   -1.6852    0.0000 C   0  0  0  0  0  0  0  0  0  0  0  0
   -1.5574   -0.7500    0.0000 C   0  0  0  0  0  0  0  0  0  0  0  0
   -2.9088   -1.4008    0.0000 C   0  0  0  0  0  0  0  0  0  0  0  0
   -3.0209   -2.8966    0.0000 O   0  0  0  0  0  0  0  0  0  0  0  0
   -4.1482   -0.5558    0.0000 N   0  0  0  0  0  0  0  0  0  0  0  0
   -5.4997   -1.2067    0.0000 C   0  0  0  0  0  0  0  0  0  0  0  0
   -5.7675   -2.6826    0.0000 N   0  0  0  0  0  0  0  0  0  0  0  0
   -7.2539   -2.8839    0.0000 N   0  0  0  0  0  0  0  0  0  0  0  0
   -7.9047   -1.5325    0.0000 N   0  0  0  0  0  0  0  0  0  0  0  0
   -6.8205   -0.4959    0.0000 N   0  0  0  0  0  0  0  0  0  0  0  0
   -7.0219    0.9906    0.0000 C   0  0  0  0  0  0  0  0  0  0  0  0
   -5.8353    1.9081    0.0000 C   0  0  0  0  0  0  0  0  0  0  0  0
   -6.0366    3.3946    0.0000 C   0  0  0  0  0  0  0  0  0  0  0  0
   -7.4246    3.9634    0.0000 C   0  0  0  0  0  0  0  0  0  0  0  0
   -8.6112    3.0458    0.0000 C   0  0  0  0  0  0  0  0  0  0  0  0
   -8.4099    1.5594    0.0000 C   0  0  0  0  0  0  0  0  0  0  0  0
   -1.5574    0.7500    0.0000 C   0  0  0  0  0  0  0  0  0  0  0  0
   -0.3846    1.6852    0.0000 C   0  0  0  0  0  0  0  0  0  0  0  0
   -0.8268    3.1186    0.0000 C   0  0  0  0  0  0  0  0  0  0  0  0
   -2.2892    3.4524    0.0000 O   0  0  0  0  0  0  0  0  0  0  0  0
  1  2  1  0
  2  3  2  0
  3  4  1  0
  4  5  2  0
  5  6  1  0
  6  7  2  0
  7  8  1  0
  8  9  2  0
  9 10  1  0
 10 11  2  0
 10 12  1  0
 12 13  1  0
 13 14  2  0
 14 15  1  0
 15 16  2  0
 16 17  1  0
 17 18  1  0
 18 19  2  0
 19 20  1  0
 20 21  2  0
 21 22  1  0
 22 23  2  0
  9 24  1  0
 24 25  2  0
 25 26  1  0
 26 27  2  0
 26  2  1  0
 25  5  1  0
 17 13  1  0
 23 18  1  0
M  END
>  <Title>  (1104) 
idABQLgen7

$$$$

     RDKit          2D

 30 34  0  0  0  0  0  0  0  0999 V2000
    3.0000    0.0000    0.0000 C   0  0  0  0  0  0  0  0  0  0  0  0
    1.5000    0.0000    0.0000 C   0  0  0  0  0  0  0  0  0  0  0  0
    0.7500   -1.2990    0.0000 C   0  0  0  0  0  0  0  0  0  0  0  0
   -0.7500   -1.2990    0.0000 C   0  0  0  0  0  0  0  0  0  0  0  0
   -1.5000    0.0000    0.0000 C   0  0  0  0  0  0  0  0  0  0  0  0
   -3.0000    0.0000    0.0000 C   0  0  0  0  0  0  0  0  0  0  0  0
   -3.8817   -1.2135    0.0000 N   0  0  0  0  0  0  0  0  0  0  0  0
   -5.3083   -0.7500    0.0000 N   0  0  0  0  0  0  0  0  0  0  0  0
   -5.3083    0.7500    0.0000 N   0  0  0  0  0  0  0  0  0  0  0  0
   -3.8817    1.2135    0.0000 N   0  0  0  0  0  0  0  0  0  0  0  0
   -3.4182    2.6401    0.0000 C   0  0  0  0  0  0  0  0  0  0  0  0
   -1.9509    2.9520    0.0000 C   0  0  0  0  0  0  0  0  0  0  0  0
   -1.4874    4.3786    0.0000 C   0  0  0  0  0  0  0  0  0  0  0  0
   -2.4911    5.4933    0.0000 C   0  0  0  0  0  0  0  0  0  0  0  0
   -2.0276    6.9199    0.0000 C   0  0  0  0  0  0  0  0  0  0  0  0
   -0.5604    7.2317    0.0000 C   0  0  0  0  0  0  0  0  0  0  0  0
   -0.0968    8.6583    0.0000 C   0  0  0  0  0  0  0  0  0  0  0  0
   -1.1005    9.7730    0.0000 C   0  0  0  0  0  0  0  0  0  0  0  0
   -0.6370   11.1996    0.0000 C   0  0  0  0  0  0  0  0  0  0  0  0
    0.8302   11.5115    0.0000 C   0  0  0  0  0  0  0  0  0  0  0  0
    1.2937   12.9381    0.0000 C   0  0  0  0  0  0  0  0  0  0  0  0
    0.2901   14.0528    0.0000 C   0  0  0  0  0  0  0  0  0  0  0  0
   -1.1772   13.7409    0.0000 C   0  0  0  0  0  0  0  0  0  0  0  0
   -1.6407   12.3143    0.0000 C   0  0  0  0  0  0  0  0  0  0  0  0
   -2.5677    9.4612    0.0000 C   0  0  0  0  0  0  0  0  0  0  0  0
   -3.0313    8.0346    0.0000 C   0  0  0  0  0  0  0  0  0  0  0  0
   -3.9583    5.1814    0.0000 C   0  0  0  0  0  0  0  0  0  0  0  0
   -4.4218    3.7548    0.0000 C   0  0  0  0  0  0  0  0  0  0  0  0
   -0.7500    1.2990    0.0000 C   0  0  0  0  0  0  0  0  0  0  0  0
    0.7500    1.2990    0.0000 C   0  0  0  0  0  0  0  0  0  0  0  0
  1  2  1  0
  2  3  2  0
  3  4  1  0
  4  5  2  0
  5  6  1  0
  6  7  2  0
  7  8  1  0
  8  9  2  0
  9 10  1  0
 10 11  1  0
 11 12  2  0
 12 13  1  0
 13 14  2  0
 14 15  1  0
 15 16  2  0
 16 17  1  0
 17 18  2  0
 18 19  1  0
 19 20  2  0
 20 21  1  0
 21 22  2  0
 22 23  1  0
 23 24  2  0
 18 25  1  0
 25 26  2  0
 14 27  1  0
 27 28  1  0
  5 29  1  0
 29 30  2  0
 30  2  1  0
 10  6  1  0
 28 11  1  0
 26 15  1  0
 24 19  1  0
M  END
>  <Title>  (1105) 
idABQMgen7

$$$$

     RDKit          2D

 36 41  0  0  0  0  0  0  0  0999 V2000
    3.7500   -1.2990    0.0000 C   0  0  0  0  0  0  0  0  0  0  0  0
    3.0000    0.0000    0.0000 O   0  0  0  0  0  0  0  0  0  0  0  0
    1.5000    0.0000    0.0000 C   0  0  0  0  0  0  0  0  0  0  0  0
    0.7500   -1.2990    0.0000 C   0  0  0  0  0  0  0  0  0  0  0  0
   -0.7500   -1.2990    0.0000 C   0  0  0  0  0  0  0  0  0  0  0  0
   -1.5000    0.0000    0.0000 C   0  0  0  0  0  0  0  0  0  0  0  0
   -3.0000    0.0000    0.0000 C   0  0  0  0  0  0  0  0  0  0  0  0
   -3.8817   -1.2135    0.0000 N   0  0  0  0  0  0  0  0  0  0  0  0
   -5.3083   -0.7500    0.0000 N   0  0  0  0  0  0  0  0  0  0  0  0
   -5.3083    0.7500    0.0000 N   0  0  0  0  0  0  0  0  0  0  0  0
   -3.8817    1.2135    0.0000 N   0  0  0  0  0  0  0  0  0  0  0  0
   -3.4182    2.6401    0.0000 C   0  0  0  0  0  0  0  0  0  0  0  0
   -1.9509    2.9520    0.0000 C   0  0  0  0  0  0  0  0  0  0  0  0
   -1.4874    4.3786    0.0000 C   0  0  0  0  0  0  0  0  0  0  0  0
   -2.4911    5.4933    0.0000 C   0  0  0  0  0  0  0  0  0  0  0  0
   -2.0276    6.9199    0.0000 C   0  0  0  0  0  0  0  0  0  0  0  0
   -2.9093    8.1334    0.0000 N   0  0  0  0  0  0  0  0  0  0  0  0
   -2.0276    9.3469    0.0000 N   0  0  0  0  0  0  0  0  0  0  0  0
   -0.6010    8.8834    0.0000 N   0  0  0  0  0  0  0  0  0  0  0  0
   -0.6010    7.3834    0.0000 N   0  0  0  0  0  0  0  0  0  0  0  0
    0.6125    6.5017    0.0000 C   0  0  0  0  0  0  0  0  0  0  0  0
    0.4557    5.0099    0.0000 C   0  0  0  0  0  0  0  0  0  0  0  0
    1.6693    4.1283    0.0000 C   0  0  0  0  0  0  0  0  0  0  0  0
    3.0396    4.7384    0.0000 C   0  0  0  0  0  0  0  0  0  0  0  0
    3.1964    6.2301    0.0000 C   0  0  0  0  0  0  0  0  0  0  0  0
    1.9829    7.1118    0.0000 C   0  0  0  0  0  0  0  0  0  0  0  0
   -3.9583    5.1814    0.0000 C   0  0  0  0  0  0  0  0  0  0  0  0
   -4.4218    3.7548    0.0000 C   0  0  0  0  0  0  0  0  0  0  0  0
   -5.8891    3.4430    0.0000 C   0  0  0  0  0  0  0  0  0  0  0  0
   -6.8928    4.5577    0.0000 C   0  0  0  0  0  0  0  0  0  0  0  0
   -8.3600    4.2458    0.0000 C   0  0  0  0  0  0  0  0  0  0  0  0
   -8.8235    2.8192    0.0000 C   0  0  0  0  0  0  0  0  0  0  0  0
   -7.8198    1.7045    0.0000 C   0  0  0  0  0  0  0  0  0  0  0  0
   -6.3526    2.0164    0.0000 C   0  0  0  0  0  0  0  0  0  0  0  0
   -0.7500    1.2990    0.0000 C   0  0  0  0  0  0  0  0  0  0  0  0
    0.7500    1.2990    0.0000 C   0  0  0  0  0  0  0  0  0  0  0  0
  1  2  1  0
  2  3  1  0
  3  4  2  0
  4  5  1  0
  5  6  2  0
  6  7  1  0
  7  8  2  0
  8  9  1  0
  9 10  2  0
 10 11  1  0
 11 12  1  0
 12 13  2  0
 13 14  1  0
 14 15  2  0
 15 16  1  0
 16 17  2  0
 17 18  1  0
 18 19  2  0
 19 20  1  0
 20 21  1  0
 21 22  2  0
 22 23  1  0
 23 24  2  0
 24 25  1  0
 25 26  2  0
 15 27  1  0
 27 28  2  0
 28 29  1  0
 29 30  2  0
 30 31  1  0
 31 32  2  0
 32 33  1  0
 33 34  2  0
  6 35  1  0
 35 36  2  0
 36  3  1  0
 11  7  1  0
 28 12  1  0
 34 29  1  0
 20 16  1  0
 26 21  1  0
M  END
>  <Title>  (1106) 
idABQNgen7

$$$$

     RDKit          2D

 29 32  0  0  0  0  0  0  0  0999 V2000
    3.0000    0.0000    0.0000 C   0  0  0  0  0  0  0  0  0  0  0  0
    1.5000    0.0000    0.0000 C   0  0  0  0  0  0  0  0  0  0  0  0
    0.7500   -1.2990    0.0000 C   0  0  0  0  0  0  0  0  0  0  0  0
   -0.7500   -1.2990    0.0000 C   0  0  0  0  0  0  0  0  0  0  0  0
   -1.5000    0.0000    0.0000 C   0  0  0  0  0  0  0  0  0  0  0  0
   -3.0000    0.0000    0.0000 C   0  0  0  0  0  0  0  0  0  0  0  0
   -3.7500   -1.2990    0.0000 O   0  0  0  0  0  0  0  0  0  0  0  0
   -3.7500    1.2990    0.0000 N   0  0  0  0  0  0  0  0  0  0  0  0
   -5.2500    1.2990    0.0000 C   0  0  0  0  0  0  0  0  0  0  0  0
   -6.1317    0.0855    0.0000 N   0  0  0  0  0  0  0  0  0  0  0  0
   -7.5583    0.5490    0.0000 C   0  0  0  0  0  0  0  0  0  0  0  0
   -8.7718   -0.3326    0.0000 C   0  0  0  0  0  0  0  0  0  0  0  0
   -8.6150   -1.8244    0.0000 O   0  0  0  0  0  0  0  0  0  0  0  0
  -10.1421    0.2775    0.0000 N   0  0  0  0  0  0  0  0  0  0  0  0
  -11.3556   -0.6042    0.0000 C   0  0  0  0  0  0  0  0  0  0  0  0
  -11.3556   -2.1042    0.0000 N   0  0  0  0  0  0  0  0  0  0  0  0
  -12.7822   -2.5677    0.0000 C   0  0  0  0  0  0  0  0  0  0  0  0
  -13.6639   -1.3542    0.0000 N   0  0  0  0  0  0  0  0  0  0  0  0
  -12.7822   -0.1407    0.0000 N   0  0  0  0  0  0  0  0  0  0  0  0
  -13.2457    1.2859    0.0000 C   0  0  0  0  0  0  0  0  0  0  0  0
  -12.2420    2.4006    0.0000 C   0  0  0  0  0  0  0  0  0  0  0  0
  -12.7056    3.8272    0.0000 C   0  0  0  0  0  0  0  0  0  0  0  0
  -14.1728    4.1391    0.0000 C   0  0  0  0  0  0  0  0  0  0  0  0
  -15.1765    3.0243    0.0000 C   0  0  0  0  0  0  0  0  0  0  0  0
  -14.7130    1.5978    0.0000 C   0  0  0  0  0  0  0  0  0  0  0  0
   -7.5583    2.0490    0.0000 C   0  0  0  0  0  0  0  0  0  0  0  0
   -6.1317    2.5126    0.0000 C   0  0  0  0  0  0  0  0  0  0  0  0
   -0.7500    1.2990    0.0000 C   0  0  0  0  0  0  0  0  0  0  0  0
    0.7500    1.2990    0.0000 C   0  0  0  0  0  0  0  0  0  0  0  0
  1  2  1  0
  2  3  2  0
  3  4  1  0
  4  5  2  0
  5  6  1  0
  6  7  2  0
  6  8  1  0
  8  9  1  0
  9 10  2  0
 10 11  1  0
 11 12  1  0
 12 13  2  0
 12 14  1  0
 14 15  1  0
 15 16  2  0
 16 17  1  0
 17 18  2  0
 18 19  1  0
 19 20  1  0
 20 21  2  0
 21 22  1  0
 22 23  2  0
 23 24  1  0
 24 25  2  0
 11 26  1  0
 26 27  2  0
  5 28  1  0
 28 29  2  0
 29  2  1  0
 27  9  1  0
 19 15  1  0
 25 20  1  0
M  END
>  <Title>  (1107) 
idABQOgen7

$$$$

     RDKit          2D

 47 53  0  0  0  0  0  0  0  0999 V2000
   -4.4069  -12.3600    0.0000 C   0  0  0  0  0  0  0  0  0  0  0  0
   -5.8623  -11.9971    0.0000 C   0  0  0  0  0  0  0  0  0  0  0  0
   -6.2758  -10.5552    0.0000 C   0  0  0  0  0  0  0  0  0  0  0  0
   -7.7312  -10.1924    0.0000 C   0  0  0  0  0  0  0  0  0  0  0  0
   -8.7732  -11.2714    0.0000 C   0  0  0  0  0  0  0  0  0  0  0  0
  -10.2286  -10.9085    0.0000 C   0  0  0  0  0  0  0  0  0  0  0  0
  -11.3777  -11.8727    0.0000 N   0  0  0  0  0  0  0  0  0  0  0  0
  -12.6498  -11.0778    0.0000 N   0  0  0  0  0  0  0  0  0  0  0  0
  -12.2869   -9.6223    0.0000 N   0  0  0  0  0  0  0  0  0  0  0  0
  -10.7906   -9.5177    0.0000 N   0  0  0  0  0  0  0  0  0  0  0  0
   -9.9957   -8.2456    0.0000 C   0  0  0  0  0  0  0  0  0  0  0  0
   -8.4966   -8.2980    0.0000 C   0  0  0  0  0  0  0  0  0  0  0  0
   -7.7017   -7.0259    0.0000 C   0  0  0  0  0  0  0  0  0  0  0  0
   -8.4059   -5.7015    0.0000 C   0  0  0  0  0  0  0  0  0  0  0  0
   -7.6110   -4.4294    0.0000 C   0  0  0  0  0  0  0  0  0  0  0  0
   -8.3153   -3.1050    0.0000 O   0  0  0  0  0  0  0  0  0  0  0  0
   -6.1120   -4.4818    0.0000 N   0  0  0  0  0  0  0  0  0  0  0  0
   -5.3171   -3.2097    0.0000 C   0  0  0  0  0  0  0  0  0  0  0  0
   -3.8499   -3.5216    0.0000 C   0  0  0  0  0  0  0  0  0  0  0  0
   -2.5254   -2.8174    0.0000 C   0  0  0  0  0  0  0  0  0  0  0  0
   -1.9635   -1.4266    0.0000 C   0  0  0  0  0  0  0  0  0  0  0  0
   -0.7500   -2.3083    0.0000 C   0  0  0  0  0  0  0  0  0  0  0  0
    0.7500   -2.3083    0.0000 C   0  0  0  0  0  0  0  0  0  0  0  0
    1.9635   -1.4266    0.0000 C   0  0  0  0  0  0  0  0  0  0  0  0
    2.4271    0.0000    0.0000 C   0  0  0  0  0  0  0  0  0  0  0  0
    1.9635    1.4266    0.0000 C   0  0  0  0  0  0  0  0  0  0  0  0
    0.7500    2.3083    0.0000 C   0  0  0  0  0  0  0  0  0  0  0  0
   -0.7500    2.3083    0.0000 C   0  0  0  0  0  0  0  0  0  0  0  0
   -1.9635    1.4266    0.0000 C   0  0  0  0  0  0  0  0  0  0  0  0
   -2.4271    0.0000    0.0000 C   0  0  0  0  0  0  0  0  0  0  0  0
   -3.6991    0.7949    0.0000 N   0  0  0  0  0  0  0  0  0  0  0  0
   -5.1845    0.5861    0.0000 N   0  0  0  0  0  0  0  0  0  0  0  0
   -6.1882   -0.5286    0.0000 N   0  0  0  0  0  0  0  0  0  0  0  0
   -6.2406   -2.0277    0.0000 N   0  0  0  0  0  0  0  0  0  0  0  0
   -9.9050   -5.6491    0.0000 C   0  0  0  0  0  0  0  0  0  0  0  0
  -10.6999   -6.9212    0.0000 C   0  0  0  0  0  0  0  0  0  0  0  0
  -12.1990   -6.8689    0.0000 C   0  0  0  0  0  0  0  0  0  0  0  0
  -12.9032   -5.5444    0.0000 C   0  0  0  0  0  0  0  0  0  0  0  0
  -14.4023   -5.4921    0.0000 C   0  0  0  0  0  0  0  0  0  0  0  0
  -15.1971   -6.7642    0.0000 C   0  0  0  0  0  0  0  0  0  0  0  0
  -16.6962   -6.7118    0.0000 C   0  0  0  0  0  0  0  0  0  0  0  0
  -14.4929   -8.0886    0.0000 C   0  0  0  0  0  0  0  0  0  0  0  0
  -15.2878   -9.3607    0.0000 O   0  0  0  0  0  0  0  0  0  0  0  0
  -12.9939   -8.1409    0.0000 N   0  0  0  0  0  0  0  0  0  0  0  0
   -8.3597  -12.7133    0.0000 C   0  0  0  0  0  0  0  0  0  0  0  0
   -9.4017  -13.7923    0.0000 O   0  0  0  0  0  0  0  0  0  0  0  0
   -6.9043  -13.0761    0.0000 N   0  0  0  0  0  0  0  0  0  0  0  0
  1  2  1  0
  2  3  2  0
  3  4  1  0
  4  5  2  0
  5  6  1  0
  6  7  2  0
  7  8  1  0
  8  9  2  0
  9 10  1  0
 10 11  1  0
 11 12  2  0
 12 13  1  0
 13 14  2  0
 14 15  1  0
 15 16  2  0
 15 17  1  0
 17 18  1  0
 18 19  2  0
 19 20  1  0
 20 21  2  0
 21 22  1  0
 22 23  2  0
 23 24  1  0
 24 25  2  0
 25 26  1  0
 26 27  2  0
 27 28  1  0
 28 29  2  0
 29 30  1  0
 30 31  2  0
 31 32  1  0
 32 33  2  0
 33 34  1  0
 14 35  1  0
 35 36  2  0
 36 37  1  0
 37 38  2  0
 38 39  1  0
 39 40  2  0
 40 41  1  0
 40 42  1  0
 42 43  2  0
 42 44  1  0
  5 45  1  0
 45 46  2  0
 45 47  1  0
 47  2  1  0
 10  6  1  0
 36 11  1  0
 44 37  1  0
 34 18  1  0
 30 21  1  0
 34 24  1  0
M  END
>  <Title>  (1108) 
idABQPgen7

$$$$

     RDKit          2D

 35 39  0  0  0  0  0  0  0  0999 V2000
    3.0000    0.0000    0.0000 C   0  0  0  0  0  0  0  0  0  0  0  0
    1.5000    0.0000    0.0000 C   0  0  0  0  0  0  0  0  0  0  0  0
    0.7500   -1.2990    0.0000 C   0  0  0  0  0  0  0  0  0  0  0  0
   -0.7500   -1.2990    0.0000 C   0  0  0  0  0  0  0  0  0  0  0  0
   -1.5000    0.0000    0.0000 C   0  0  0  0  0  0  0  0  0  0  0  0
   -3.0000    0.0000    0.0000 C   0  0  0  0  0  0  0  0  0  0  0  0
   -3.7500   -1.2990    0.0000 O   0  0  0  0  0  0  0  0  0  0  0  0
   -3.7500    1.2990    0.0000 N   0  0  0  0  0  0  0  0  0  0  0  0
   -5.2500    1.2990    0.0000 C   0  0  0  0  0  0  0  0  0  0  0  0
   -6.1317    0.0855    0.0000 N   0  0  0  0  0  0  0  0  0  0  0  0
   -7.5583    0.5490    0.0000 N   0  0  0  0  0  0  0  0  0  0  0  0
   -7.5583    2.0490    0.0000 N   0  0  0  0  0  0  0  0  0  0  0  0
   -6.1317    2.5126    0.0000 N   0  0  0  0  0  0  0  0  0  0  0  0
   -5.6682    3.9391    0.0000 C   0  0  0  0  0  0  0  0  0  0  0  0
   -6.5498    5.1527    0.0000 C   0  0  0  0  0  0  0  0  0  0  0  0
   -5.6682    6.3662    0.0000 C   0  0  0  0  0  0  0  0  0  0  0  0
   -4.2416    5.9027    0.0000 C   0  0  0  0  0  0  0  0  0  0  0  0
   -3.0280    6.7844    0.0000 C   0  0  0  0  0  0  0  0  0  0  0  0
   -3.1848    8.2761    0.0000 O   0  0  0  0  0  0  0  0  0  0  0  0
   -1.6577    6.1742    0.0000 N   0  0  0  0  0  0  0  0  0  0  0  0
   -0.4442    7.0559    0.0000 C   0  0  0  0  0  0  0  0  0  0  0  0
   -0.4442    8.5559    0.0000 N   0  0  0  0  0  0  0  0  0  0  0  0
    0.9824    9.0195    0.0000 N   0  0  0  0  0  0  0  0  0  0  0  0
    1.8641    7.8059    0.0000 N   0  0  0  0  0  0  0  0  0  0  0  0
    0.9824    6.5924    0.0000 N   0  0  0  0  0  0  0  0  0  0  0  0
    1.4459    5.1658    0.0000 C   0  0  0  0  0  0  0  0  0  0  0  0
    0.4422    4.0511    0.0000 C   0  0  0  0  0  0  0  0  0  0  0  0
    0.9057    2.6245    0.0000 C   0  0  0  0  0  0  0  0  0  0  0  0
    2.3730    2.3126    0.0000 C   0  0  0  0  0  0  0  0  0  0  0  0
    3.3767    3.4274    0.0000 C   0  0  0  0  0  0  0  0  0  0  0  0
    2.9131    4.8539    0.0000 C   0  0  0  0  0  0  0  0  0  0  0  0
   -4.2416    4.4027    0.0000 C   0  0  0  0  0  0  0  0  0  0  0  0
   -3.0280    3.5210    0.0000 O   0  0  0  0  0  0  0  0  0  0  0  0
   -0.7500    1.2990    0.0000 C   0  0  0  0  0  0  0  0  0  0  0  0
    0.7500    1.2990    0.0000 C   0  0  0  0  0  0  0  0  0  0  0  0
  1  2  1  0
  2  3  2  0
  3  4  1  0
  4  5  2  0
  5  6  1  0
  6  7  2  0
  6  8  1  0
  8  9  1  0
  9 10  2  0
 10 11  1  0
 11 12  2  0
 12 13  1  0
 13 14  1  0
 14 15  2  0
 15 16  1  0
 16 17  2  0
 17 18  1  0
 18 19  2  0
 18 20  1  0
 20 21  1  0
 21 22  2  0
 22 23  1  0
 23 24  2  0
 24 25  1  0
 25 26  1  0
 26 27  2  0
 27 28  1  0
 28 29  2  0
 29 30  1  0
 30 31  2  0
 17 32  1  0
 32 33  2  0
  5 34  1  0
 34 35  1  0
 35  2  1  0
 13  9  1  0
 32 14  1  0
 25 21  1  0
 31 26  1  0
M  END
>  <Title>  (1109) 
idABQQgen7

$$$$

     RDKit          2D

 13 13  0  0  0  0  0  0  0  0999 V2000
    6.2286   -2.5981    0.0000 C   0  0  0  0  0  0  0  0  0  0  0  0
    5.4786   -1.2990    0.0000 C   0  0  0  0  0  0  0  0  0  0  0  0
    6.2286   -0.0000    0.0000 O   0  0  0  0  0  0  0  0  0  0  0  0
    3.9786   -1.2990    0.0000 N   0  0  0  0  0  0  0  0  0  0  0  0
    3.2286   -0.0000    0.0000 C   0  0  0  0  0  0  0  0  0  0  0  0
    3.9786    1.2990    0.0000 O   0  0  0  0  0  0  0  0  0  0  0  0
    1.7286    0.0000    0.0000 C   0  0  0  0  0  0  0  0  0  0  0  0
    1.0777    1.3515    0.0000 C   0  0  0  0  0  0  0  0  0  0  0  0
   -0.3846    1.6852    0.0000 C   0  0  0  0  0  0  0  0  0  0  0  0
   -1.5574    0.7500    0.0000 C   0  0  0  0  0  0  0  0  0  0  0  0
   -1.5574   -0.7500    0.0000 C   0  0  0  0  0  0  0  0  0  0  0  0
   -0.3846   -1.6852    0.0000 C   0  0  0  0  0  0  0  0  0  0  0  0
    1.0777   -1.3515    0.0000 C   0  0  0  0  0  0  0  0  0  0  0  0
  1  2  1  0
  2  3  2  0
  2  4  1  0
  4  5  1  0
  5  6  2  0
  5  7  1  0
  7  8  1  0
  8  9  1  0
  9 10  2  0
 10 11  1  0
 11 12  1  0
 12 13  1  0
 13  7  1  0
M  END
>  <Title>  (1110) 
idABQRgen7

$$$$

     RDKit          2D

 21 23  0  0  0  0  0  0  0  0999 V2000
    7.5646   -0.1148    0.0000 C   0  0  0  0  0  0  0  0  0  0  0  0
    6.0974   -0.4266    0.0000 C   0  0  0  0  0  0  0  0  0  0  0  0
    4.9826    0.5771    0.0000 C   0  0  0  0  0  0  0  0  0  0  0  0
    3.6836   -0.1729    0.0000 C   0  0  0  0  0  0  0  0  0  0  0  0
    3.9955   -1.6402    0.0000 C   0  0  0  0  0  0  0  0  0  0  0  0
    2.9918   -2.7549    0.0000 C   0  0  0  0  0  0  0  0  0  0  0  0
    3.3037   -4.2221    0.0000 N   0  0  0  0  0  0  0  0  0  0  0  0
    2.0046   -4.9721    0.0000 N   0  0  0  0  0  0  0  0  0  0  0  0
    0.8899   -3.9684    0.0000 N   0  0  0  0  0  0  0  0  0  0  0  0
    1.5000   -2.5981    0.0000 N   0  0  0  0  0  0  0  0  0  0  0  0
    0.7500   -1.2990    0.0000 C   0  0  0  0  0  0  0  0  0  0  0  0
    1.5000    0.0000    0.0000 C   0  0  0  0  0  0  0  0  0  0  0  0
    0.7500    1.2990    0.0000 C   0  0  0  0  0  0  0  0  0  0  0  0
   -0.7500    1.2990    0.0000 C   0  0  0  0  0  0  0  0  0  0  0  0
   -1.5000    2.5981    0.0000 C   0  0  0  0  0  0  0  0  0  0  0  0
   -3.0000    2.5981    0.0000 O   0  0  0  0  0  0  0  0  0  0  0  0
   -0.7500    3.8971    0.0000 N   0  0  0  0  0  0  0  0  0  0  0  0
   -1.5000    5.1962    0.0000 O   0  0  0  0  0  0  0  0  0  0  0  0
   -1.5000    0.0000    0.0000 C   0  0  0  0  0  0  0  0  0  0  0  0
   -0.7500   -1.2990    0.0000 C   0  0  0  0  0  0  0  0  0  0  0  0
    5.4873   -1.7969    0.0000 C   0  0  0  0  0  0  0  0  0  0  0  0
  1  2  1  0
  2  3  2  0
  3  4  1  0
  4  5  2  0
  5  6  1  0
  6  7  2  0
  7  8  1  0
  8  9  2  0
  9 10  1  0
 10 11  1  0
 11 12  2  0
 12 13  1  0
 13 14  2  0
 14 15  1  0
 15 16  2  0
 15 17  1  0
 17 18  1  0
 14 19  1  0
 19 20  1  0
  5 21  1  0
 21  2  1  0
 10  6  1  0
 20 11  1  0
M  END
>  <Title>  (1111) 
idABQSgen7

$$$$

     RDKit          2D

 43 48  0  0  0  0  0  0  0  0999 V2000
    6.0000    0.0000    0.0000 O   0  0  0  0  0  0  0  0  0  0  0  0
    5.2500   -1.2990    0.0000 C   0  0  0  0  0  0  0  0  0  0  0  0
    3.7500   -1.2990    0.0000 C   0  0  0  0  0  0  0  0  0  0  0  0
    3.0000    0.0000    0.0000 C   0  0  0  0  0  0  0  0  0  0  0  0
    1.5000    0.0000    0.0000 C   0  0  0  0  0  0  0  0  0  0  0  0
    0.7500   -1.2990    0.0000 C   0  0  0  0  0  0  0  0  0  0  0  0
   -0.7500   -1.2990    0.0000 C   0  0  0  0  0  0  0  0  0  0  0  0
   -1.5000    0.0000    0.0000 C   0  0  0  0  0  0  0  0  0  0  0  0
   -3.0000    0.0000    0.0000 C   0  0  0  0  0  0  0  0  0  0  0  0
   -3.7500    1.2990    0.0000 C   0  0  0  0  0  0  0  0  0  0  0  0
   -5.2500    1.2990    0.0000 C   0  0  0  0  0  0  0  0  0  0  0  0
   -6.0000    2.5981    0.0000 C   0  0  0  0  0  0  0  0  0  0  0  0
   -7.4918    2.7549    0.0000 N   0  0  0  0  0  0  0  0  0  0  0  0
   -7.8037    4.2221    0.0000 N   0  0  0  0  0  0  0  0  0  0  0  0
   -6.5046    4.9721    0.0000 N   0  0  0  0  0  0  0  0  0  0  0  0
   -5.3899    3.9684    0.0000 N   0  0  0  0  0  0  0  0  0  0  0  0
   -3.9227    4.2803    0.0000 C   0  0  0  0  0  0  0  0  0  0  0  0
   -2.9190    3.1655    0.0000 C   0  0  0  0  0  0  0  0  0  0  0  0
   -1.4518    3.4774    0.0000 C   0  0  0  0  0  0  0  0  0  0  0  0
   -0.9882    4.9040    0.0000 C   0  0  0  0  0  0  0  0  0  0  0  0
   -1.9919    6.0187    0.0000 C   0  0  0  0  0  0  0  0  0  0  0  0
   -3.4591    5.7068    0.0000 C   0  0  0  0  0  0  0  0  0  0  0  0
   -6.0000    0.0000    0.0000 C   0  0  0  0  0  0  0  0  0  0  0  0
   -5.2500   -1.2990    0.0000 C   0  0  0  0  0  0  0  0  0  0  0  0
   -3.7500   -1.2990    0.0000 C   0  0  0  0  0  0  0  0  0  0  0  0
   -3.0000   -2.5981    0.0000 N   0  0  0  0  0  0  0  0  0  0  0  0
   -1.5082   -2.7549    0.0000 N   0  0  0  0  0  0  0  0  0  0  0  0
   -1.1963   -4.2221    0.0000 N   0  0  0  0  0  0  0  0  0  0  0  0
   -2.4954   -4.9721    0.0000 N   0  0  0  0  0  0  0  0  0  0  0  0
   -3.6101   -3.9684    0.0000 C   0  0  0  0  0  0  0  0  0  0  0  0
   -5.0773   -4.2803    0.0000 C   0  0  0  0  0  0  0  0  0  0  0  0
   -5.6874   -5.6506    0.0000 C   0  0  0  0  0  0  0  0  0  0  0  0
   -7.1792   -5.4938    0.0000 C   0  0  0  0  0  0  0  0  0  0  0  0
   -7.4911   -4.0266    0.0000 C   0  0  0  0  0  0  0  0  0  0  0  0
   -8.8614   -3.4165    0.0000 C   0  0  0  0  0  0  0  0  0  0  0  0
   -9.0182   -1.9247    0.0000 O   0  0  0  0  0  0  0  0  0  0  0  0
   -6.1920   -3.2766    0.0000 C   0  0  0  0  0  0  0  0  0  0  0  0
   -6.0353   -1.7848    0.0000 O   0  0  0  0  0  0  0  0  0  0  0  0
   -0.7500    1.2990    0.0000 C   0  0  0  0  0  0  0  0  0  0  0  0
   -1.5000    2.5981    0.0000 O   0  0  0  0  0  0  0  0  0  0  0  0
    0.7500    1.2990    0.0000 N   0  0  0  0  0  0  0  0  0  0  0  0
    6.0000   -2.5981    0.0000 N   0  0  0  0  0  0  0  0  0  0  0  0
    7.5000   -2.5981    0.0000 O   0  0  0  0  0  0  0  0  0  0  0  0
  1  2  2  0
  2  3  1  0
  3  4  1  0
  4  5  1  0
  5  6  2  0
  6  7  1  0
  7  8  2  0
  8  9  1  0
  9 10  2  0
 10 11  1  0
 11 12  1  0
 12 13  2  0
 13 14  1  0
 14 15  2  0
 15 16  1  0
 16 17  1  0
 17 18  2  0
 18 19  1  0
 19 20  2  0
 20 21  1  0
 21 22  2  0
 11 23  2  0
 23 24  1  0
 24 25  2  0
 25 26  1  0
 26 27  1  0
 27 28  2  0
 28 29  1  0
 29 30  2  0
 30 31  1  0
 31 32  2  0
 32 33  1  0
 33 34  2  0
 34 35  1  0
 35 36  1  0
 34 37  1  0
 37 38  2  0
  8 39  1  0
 39 40  2  0
 39 41  1  0
  2 42  1  0
 42 43  1  0
 41  5  1  0
 25  9  1  0
 30 26  1  0
 37 31  1  0
 16 12  1  0
 22 17  1  0
M  END
>  <Title>  (1112) 
idABQTgen7

$$$$

     RDKit          2D

 47 54  0  0  0  0  0  0  0  0999 V2000
   -4.8274   10.7735    0.0000 C   0  0  0  0  0  0  0  0  0  0  0  0
   -5.2909    9.3469    0.0000 C   0  0  0  0  0  0  0  0  0  0  0  0
   -4.2872    8.2322    0.0000 C   0  0  0  0  0  0  0  0  0  0  0  0
   -4.7508    6.8056    0.0000 C   0  0  0  0  0  0  0  0  0  0  0  0
   -6.2180    6.4937    0.0000 C   0  0  0  0  0  0  0  0  0  0  0  0
   -6.6815    5.0672    0.0000 C   0  0  0  0  0  0  0  0  0  0  0  0
   -8.1081    4.6036    0.0000 N   0  0  0  0  0  0  0  0  0  0  0  0
   -8.1081    3.1036    0.0000 N   0  0  0  0  0  0  0  0  0  0  0  0
   -6.6815    2.6401    0.0000 N   0  0  0  0  0  0  0  0  0  0  0  0
   -5.7998    3.8536    0.0000 N   0  0  0  0  0  0  0  0  0  0  0  0
   -4.2998    3.8536    0.0000 C   0  0  0  0  0  0  0  0  0  0  0  0
   -3.4182    2.6401    0.0000 C   0  0  0  0  0  0  0  0  0  0  0  0
   -1.9916    3.1036    0.0000 C   0  0  0  0  0  0  0  0  0  0  0  0
   -1.9916    4.6036    0.0000 C   0  0  0  0  0  0  0  0  0  0  0  0
   -0.7780    5.4853    0.0000 C   0  0  0  0  0  0  0  0  0  0  0  0
   -0.7780    6.9853    0.0000 N   0  0  0  0  0  0  0  0  0  0  0  0
    0.6485    7.4488    0.0000 N   0  0  0  0  0  0  0  0  0  0  0  0
    1.5302    6.2353    0.0000 N   0  0  0  0  0  0  0  0  0  0  0  0
    0.6485    5.0218    0.0000 N   0  0  0  0  0  0  0  0  0  0  0  0
    1.1121    3.5952    0.0000 C   0  0  0  0  0  0  0  0  0  0  0  0
    0.1084    2.4805    0.0000 C   0  0  0  0  0  0  0  0  0  0  0  0
    0.5719    1.0539    0.0000 C   0  0  0  0  0  0  0  0  0  0  0  0
    2.0391    0.7420    0.0000 C   0  0  0  0  0  0  0  0  0  0  0  0
    2.5026   -0.6846    0.0000 C   0  0  0  0  0  0  0  0  0  0  0  0
    1.4989   -1.7993    0.0000 C   0  0  0  0  0  0  0  0  0  0  0  0
    1.9625   -3.2259    0.0000 C   0  0  0  0  0  0  0  0  0  0  0  0
    3.4297   -3.5377    0.0000 C   0  0  0  0  0  0  0  0  0  0  0  0
    4.4334   -2.4230    0.0000 C   0  0  0  0  0  0  0  0  0  0  0  0
    3.9699   -0.9964    0.0000 C   0  0  0  0  0  0  0  0  0  0  0  0
    3.0428    1.8568    0.0000 C   0  0  0  0  0  0  0  0  0  0  0  0
    2.5793    3.2833    0.0000 C   0  0  0  0  0  0  0  0  0  0  0  0
    3.5830    4.3981    0.0000 C   0  0  0  0  0  0  0  0  0  0  0  0
    3.2711    5.8653    0.0000 N   0  0  0  0  0  0  0  0  0  0  0  0
    4.5702    6.6153    0.0000 N   0  0  0  0  0  0  0  0  0  0  0  0
    5.6849    5.6116    0.0000 N   0  0  0  0  0  0  0  0  0  0  0  0
    5.0748    4.2413    0.0000 N   0  0  0  0  0  0  0  0  0  0  0  0
    5.8248    2.9422    0.0000 C   0  0  0  0  0  0  0  0  0  0  0  0
    5.0748    1.6432    0.0000 C   0  0  0  0  0  0  0  0  0  0  0  0
    5.8248    0.3441    0.0000 C   0  0  0  0  0  0  0  0  0  0  0  0
    7.3248    0.3441    0.0000 C   0  0  0  0  0  0  0  0  0  0  0  0
    8.0748    1.6432    0.0000 C   0  0  0  0  0  0  0  0  0  0  0  0
    7.3248    2.9422    0.0000 C   0  0  0  0  0  0  0  0  0  0  0  0
   -3.4182    5.0672    0.0000 C   0  0  0  0  0  0  0  0  0  0  0  0
   -3.8817    6.4937    0.0000 O   0  0  0  0  0  0  0  0  0  0  0  0
   -7.2217    7.6085    0.0000 C   0  0  0  0  0  0  0  0  0  0  0  0
   -8.6889    7.2966    0.0000 O   0  0  0  0  0  0  0  0  0  0  0  0
   -6.7582    9.0350    0.0000 N   0  0  0  0  0  0  0  0  0  0  0  0
  1  2  1  0
  2  3  2  0
  3  4  1  0
  4  5  2  0
  5  6  1  0
  6  7  2  0
  7  8  1  0
  8  9  2  0
  9 10  1  0
 10 11  1  0
 11 12  2  0
 12 13  1  0
 13 14  2  0
 14 15  1  0
 15 16  2  0
 16 17  1  0
 17 18  2  0
 18 19  1  0
 19 20  1  0
 20 21  2  0
 21 22  1  0
 22 23  2  0
 23 24  1  0
 24 25  2  0
 25 26  1  0
 26 27  2  0
 27 28  1  0
 28 29  2  0
 23 30  1  0
 30 31  2  0
 31 32  1  0
 32 33  2  0
 33 34  1  0
 34 35  2  0
 35 36  1  0
 36 37  1  0
 37 38  2  0
 38 39  1  0
 39 40  2  0
 40 41  1  0
 41 42  2  0
 14 43  1  0
 43 44  2  0
  5 45  1  0
 45 46  2  0
 45 47  1  0
 47  2  1  0
 10  6  1  0
 43 11  1  0
 19 15  1  0
 31 20  1  0
 36 32  1  0
 42 37  1  0
 29 24  1  0
M  END
>  <Title>  (1113) 
idABQUgen7

$$$$

     RDKit          2D

 26 29  0  0  0  0  0  0  0  0999 V2000
   -0.6071    6.1530    0.0000 C   0  0  0  0  0  0  0  0  0  0  0  0
   -0.7248    4.6576    0.0000 C   0  0  0  0  0  0  0  0  0  0  0  0
    0.6118    3.9766    0.0000 C   0  0  0  0  0  0  0  0  0  0  0  0
    1.0753    2.5500    0.0000 C   0  0  0  0  0  0  0  0  0  0  0  0
    0.3943    1.2135    0.0000 C   0  0  0  0  0  0  0  0  0  0  0  0
    1.2760    0.0000    0.0000 C   0  0  0  0  0  0  0  0  0  0  0  0
    0.3943   -1.2135    0.0000 C   0  0  0  0  0  0  0  0  0  0  0  0
    0.8578   -2.6401    0.0000 C   0  0  0  0  0  0  0  0  0  0  0  0
   -0.1459   -3.7548    0.0000 C   0  0  0  0  0  0  0  0  0  0  0  0
   -1.6131   -3.4430    0.0000 C   0  0  0  0  0  0  0  0  0  0  0  0
   -2.6168   -4.5577    0.0000 C   0  0  0  0  0  0  0  0  0  0  0  0
   -2.1533   -5.9843    0.0000 C   0  0  0  0  0  0  0  0  0  0  0  0
   -0.6860   -6.2961    0.0000 C   0  0  0  0  0  0  0  0  0  0  0  0
    0.3177   -5.1814    0.0000 C   0  0  0  0  0  0  0  0  0  0  0  0
    1.7849   -5.4933    0.0000 C   0  0  0  0  0  0  0  0  0  0  0  0
    2.2484   -6.9199    0.0000 C   0  0  0  0  0  0  0  0  0  0  0  0
    3.7156   -7.2317    0.0000 C   0  0  0  0  0  0  0  0  0  0  0  0
    4.7193   -6.1170    0.0000 C   0  0  0  0  0  0  0  0  0  0  0  0
    4.2558   -4.6904    0.0000 C   0  0  0  0  0  0  0  0  0  0  0  0
    2.7886   -4.3786    0.0000 C   0  0  0  0  0  0  0  0  0  0  0  0
   -1.0323   -0.7500    0.0000 C   0  0  0  0  0  0  0  0  0  0  0  0
   -1.0323    0.7500    0.0000 C   0  0  0  0  0  0  0  0  0  0  0  0
   -2.3688    1.4310    0.0000 C   0  0  0  0  0  0  0  0  0  0  0  0
   -2.8323    2.8576    0.0000 C   0  0  0  0  0  0  0  0  0  0  0  0
   -4.3277    2.9753    0.0000 O   0  0  0  0  0  0  0  0  0  0  0  0
   -2.1513    4.1941    0.0000 N   0  0  0  0  0  0  0  0  0  0  0  0
  1  2  1  0
  2  3  2  0
  3  4  1  0
  4  5  2  0
  5  6  1  0
  6  7  2  0
  7  8  1  0
  8  9  1  0
  9 10  2  0
 10 11  1  0
 11 12  2  0
 12 13  1  0
 13 14  2  0
 14 15  1  0
 15 16  2  0
 16 17  1  0
 17 18  2  0
 18 19  1  0
 19 20  2  0
  7 21  1  0
 21 22  2  0
 22 23  1  0
 23 24  1  0
 24 25  2  0
 24 26  1  0
 26  2  1  0
 22  5  1  0
 14  9  1  0
 20 15  1  0
M  END
>  <Title>  (1114) 
idABQVgen7

$$$$

     RDKit          2D

 22 24  0  0  0  0  0  0  0  0999 V2000
    3.0000    0.0000    0.0000 C   0  0  0  0  0  0  0  0  0  0  0  0
    1.5000    0.0000    0.0000 C   0  0  0  0  0  0  0  0  0  0  0  0
    0.7500   -1.2990    0.0000 C   0  0  0  0  0  0  0  0  0  0  0  0
   -0.7500   -1.2990    0.0000 C   0  0  0  0  0  0  0  0  0  0  0  0
   -1.5000    0.0000    0.0000 C   0  0  0  0  0  0  0  0  0  0  0  0
   -3.0000    0.0000    0.0000 C   0  0  0  0  0  0  0  0  0  0  0  0
   -3.8817   -1.2135    0.0000 N   0  0  0  0  0  0  0  0  0  0  0  0
   -5.3083   -0.7500    0.0000 N   0  0  0  0  0  0  0  0  0  0  0  0
   -5.3083    0.7500    0.0000 N   0  0  0  0  0  0  0  0  0  0  0  0
   -3.8817    1.2135    0.0000 N   0  0  0  0  0  0  0  0  0  0  0  0
   -3.4182    2.6401    0.0000 C   0  0  0  0  0  0  0  0  0  0  0  0
   -4.2998    3.8536    0.0000 C   0  0  0  0  0  0  0  0  0  0  0  0
   -3.4182    5.0672    0.0000 C   0  0  0  0  0  0  0  0  0  0  0  0
   -1.9916    4.6036    0.0000 C   0  0  0  0  0  0  0  0  0  0  0  0
   -0.7780    5.4853    0.0000 C   0  0  0  0  0  0  0  0  0  0  0  0
   -0.9348    6.9771    0.0000 O   0  0  0  0  0  0  0  0  0  0  0  0
    0.5923    4.8752    0.0000 N   0  0  0  0  0  0  0  0  0  0  0  0
    1.8058    5.7569    0.0000 O   0  0  0  0  0  0  0  0  0  0  0  0
   -1.9916    3.1036    0.0000 C   0  0  0  0  0  0  0  0  0  0  0  0
   -0.7780    2.2220    0.0000 O   0  0  0  0  0  0  0  0  0  0  0  0
   -0.7500    1.2990    0.0000 C   0  0  0  0  0  0  0  0  0  0  0  0
    0.7500    1.2990    0.0000 C   0  0  0  0  0  0  0  0  0  0  0  0
  1  2  1  0
  2  3  2  0
  3  4  1  0
  4  5  2  0
  5  6  1  0
  6  7  2  0
  7  8  1  0
  8  9  2  0
  9 10  1  0
 10 11  1  0
 11 12  2  0
 12 13  1  0
 13 14  2  0
 14 15  1  0
 15 16  2  0
 15 17  1  0
 17 18  1  0
 14 19  1  0
 19 20  2  0
  5 21  1  0
 21 22  1  0
 22  2  1  0
 10  6  1  0
 19 11  1  0
M  END
>  <Title>  (1115) 
idABQWgen7

$$$$

     RDKit          2D

 25 27  0  0  0  0  0  0  0  0999 V2000
    3.0000    0.0000    0.0000 C   0  0  0  0  0  0  0  0  0  0  0  0
    1.5000    0.0000    0.0000 C   0  0  0  0  0  0  0  0  0  0  0  0
    0.7500   -1.2990    0.0000 C   0  0  0  0  0  0  0  0  0  0  0  0
   -0.7500   -1.2990    0.0000 C   0  0  0  0  0  0  0  0  0  0  0  0
   -1.5000    0.0000    0.0000 C   0  0  0  0  0  0  0  0  0  0  0  0
   -3.0000    0.0000    0.0000 C   0  0  0  0  0  0  0  0  0  0  0  0
   -3.7500   -1.2990    0.0000 O   0  0  0  0  0  0  0  0  0  0  0  0
   -3.7500    1.2990    0.0000 N   0  0  0  0  0  0  0  0  0  0  0  0
   -5.2500    1.2990    0.0000 C   0  0  0  0  0  0  0  0  0  0  0  0
   -6.1317    0.0855    0.0000 N   0  0  0  0  0  0  0  0  0  0  0  0
   -7.5583    0.5490    0.0000 N   0  0  0  0  0  0  0  0  0  0  0  0
   -7.5583    2.0490    0.0000 N   0  0  0  0  0  0  0  0  0  0  0  0
   -6.1317    2.5126    0.0000 N   0  0  0  0  0  0  0  0  0  0  0  0
   -5.6682    3.9391    0.0000 C   0  0  0  0  0  0  0  0  0  0  0  0
   -4.2009    4.2510    0.0000 C   0  0  0  0  0  0  0  0  0  0  0  0
   -3.7374    5.6776    0.0000 C   0  0  0  0  0  0  0  0  0  0  0  0
   -4.7411    6.7923    0.0000 C   0  0  0  0  0  0  0  0  0  0  0  0
   -4.2776    8.2189    0.0000 C   0  0  0  0  0  0  0  0  0  0  0  0
   -5.2813    9.3336    0.0000 O   0  0  0  0  0  0  0  0  0  0  0  0
   -2.8104    8.5308    0.0000 N   0  0  0  0  0  0  0  0  0  0  0  0
   -2.3468    9.9574    0.0000 O   0  0  0  0  0  0  0  0  0  0  0  0
   -6.2083    6.4805    0.0000 C   0  0  0  0  0  0  0  0  0  0  0  0
   -6.6718    5.0539    0.0000 C   0  0  0  0  0  0  0  0  0  0  0  0
   -0.7500    1.2990    0.0000 C   0  0  0  0  0  0  0  0  0  0  0  0
    0.7500    1.2990    0.0000 O   0  0  0  0  0  0  0  0  0  0  0  0
  1  2  1  0
  2  3  2  0
  3  4  1  0
  4  5  2  0
  5  6  1  0
  6  7  2  0
  6  8  1  0
  8  9  1  0
  9 10  2  0
 10 11  1  0
 11 12  2  0
 12 13  1  0
 13 14  1  0
 14 15  2  0
 15 16  1  0
 16 17  2  0
 17 18  1  0
 18 19  2  0
 18 20  1  0
 20 21  1  0
 17 22  1  0
 22 23  1  0
  5 24  1  0
 24 25  1  0
 25  2  1  0
 13  9  1  0
 23 14  1  0
M  END
>  <Title>  (1116) 
idABQXgen7

$$$$

     RDKit          2D

 45 51  0  0  0  0  0  0  0  0999 V2000
   -0.2440  -12.9451    0.0000 C   0  0  0  0  0  0  0  0  0  0  0  0
   -1.6995  -12.5822    0.0000 C   0  0  0  0  0  0  0  0  0  0  0  0
   -2.7414  -13.6612    0.0000 C   0  0  0  0  0  0  0  0  0  0  0  0
   -4.1969  -13.2983    0.0000 C   0  0  0  0  0  0  0  0  0  0  0  0
   -4.6103  -11.8564    0.0000 C   0  0  0  0  0  0  0  0  0  0  0  0
   -6.0658  -11.4935    0.0000 C   0  0  0  0  0  0  0  0  0  0  0  0
   -7.1078  -12.5725    0.0000 O   0  0  0  0  0  0  0  0  0  0  0  0
   -6.4792  -10.0516    0.0000 N   0  0  0  0  0  0  0  0  0  0  0  0
   -7.9347   -9.6888    0.0000 C   0  0  0  0  0  0  0  0  0  0  0  0
   -9.0838  -10.6529    0.0000 N   0  0  0  0  0  0  0  0  0  0  0  0
  -10.3558   -9.8581    0.0000 N   0  0  0  0  0  0  0  0  0  0  0  0
   -9.9929   -8.4026    0.0000 N   0  0  0  0  0  0  0  0  0  0  0  0
   -8.4966   -8.2980    0.0000 N   0  0  0  0  0  0  0  0  0  0  0  0
   -7.7017   -7.0259    0.0000 C   0  0  0  0  0  0  0  0  0  0  0  0
   -6.2026   -7.0783    0.0000 C   0  0  0  0  0  0  0  0  0  0  0  0
   -5.4077   -5.8062    0.0000 C   0  0  0  0  0  0  0  0  0  0  0  0
   -6.1120   -4.4818    0.0000 C   0  0  0  0  0  0  0  0  0  0  0  0
   -5.3171   -3.2097    0.0000 C   0  0  0  0  0  0  0  0  0  0  0  0
   -3.8499   -3.5216    0.0000 C   0  0  0  0  0  0  0  0  0  0  0  0
   -2.5254   -2.8174    0.0000 C   0  0  0  0  0  0  0  0  0  0  0  0
   -1.9635   -1.4266    0.0000 C   0  0  0  0  0  0  0  0  0  0  0  0
   -0.7500   -2.3083    0.0000 C   0  0  0  0  0  0  0  0  0  0  0  0
    0.7500   -2.3083    0.0000 C   0  0  0  0  0  0  0  0  0  0  0  0
    1.2135   -3.7348    0.0000 C   0  0  0  0  0  0  0  0  0  0  0  0
    0.2098   -4.8496    0.0000 C   0  0  0  0  0  0  0  0  0  0  0  0
    0.6734   -6.2761    0.0000 C   0  0  0  0  0  0  0  0  0  0  0  0
    2.1406   -6.5880    0.0000 C   0  0  0  0  0  0  0  0  0  0  0  0
    3.1443   -5.4733    0.0000 C   0  0  0  0  0  0  0  0  0  0  0  0
    2.6807   -4.0467    0.0000 C   0  0  0  0  0  0  0  0  0  0  0  0
    1.9635   -1.4266    0.0000 C   0  0  0  0  0  0  0  0  0  0  0  0
    2.4271    0.0000    0.0000 C   0  0  0  0  0  0  0  0  0  0  0  0
    1.9635    1.4266    0.0000 C   0  0  0  0  0  0  0  0  0  0  0  0
    0.7500    2.3083    0.0000 C   0  0  0  0  0  0  0  0  0  0  0  0
   -0.7500    2.3083    0.0000 C   0  0  0  0  0  0  0  0  0  0  0  0
   -1.9635    1.4266    0.0000 C   0  0  0  0  0  0  0  0  0  0  0  0
   -2.4271    0.0000    0.0000 C   0  0  0  0  0  0  0  0  0  0  0  0
   -3.6991    0.7949    0.0000 N   0  0  0  0  0  0  0  0  0  0  0  0
   -5.1845    0.5861    0.0000 N   0  0  0  0  0  0  0  0  0  0  0  0
   -6.1882   -0.5286    0.0000 N   0  0  0  0  0  0  0  0  0  0  0  0
   -6.2406   -2.0277    0.0000 N   0  0  0  0  0  0  0  0  0  0  0  0
   -7.6110   -4.4294    0.0000 C   0  0  0  0  0  0  0  0  0  0  0  0
   -8.4059   -5.7015    0.0000 C   0  0  0  0  0  0  0  0  0  0  0  0
   -3.5684  -10.7774    0.0000 C   0  0  0  0  0  0  0  0  0  0  0  0
   -3.9818   -9.3355    0.0000 O   0  0  0  0  0  0  0  0  0  0  0  0
   -2.1129  -11.1403    0.0000 N   0  0  0  0  0  0  0  0  0  0  0  0
  1  2  1  0
  2  3  2  0
  3  4  1  0
  4  5  2  0
  5  6  1  0
  6  7  2  0
  6  8  1  0
  8  9  1  0
  9 10  2  0
 10 11  1  0
 11 12  2  0
 12 13  1  0
 13 14  1  0
 14 15  2  0
 15 16  1  0
 16 17  2  0
 17 18  1  0
 18 19  2  0
 19 20  1  0
 20 21  2  0
 21 22  1  0
 22 23  2  0
 23 24  1  0
 24 25  2  0
 25 26  1  0
 26 27  2  0
 27 28  1  0
 28 29  2  0
 23 30  1  0
 30 31  2  0
 31 32  1  0
 32 33  2  0
 33 34  1  0
 34 35  2  0
 35 36  1  0
 36 37  2  0
 37 38  1  0
 38 39  2  0
 39 40  1  0
 17 41  1  0
 41 42  2  0
  5 43  1  0
 43 44  2  0
 43 45  1  0
 45  2  1  0
 13  9  1  0
 42 14  1  0
 40 18  1  0
 36 21  1  0
 29 24  1  0
 40 30  1  0
M  END
>  <Title>  (1117) 
idABQYgen7

$$$$

     RDKit          2D

 35 39  0  0  0  0  0  0  0  0999 V2000
    3.0000    0.0000    0.0000 C   0  0  0  0  0  0  0  0  0  0  0  0
    1.5000    0.0000    0.0000 C   0  0  0  0  0  0  0  0  0  0  0  0
    0.7500   -1.2990    0.0000 C   0  0  0  0  0  0  0  0  0  0  0  0
   -0.7500   -1.2990    0.0000 C   0  0  0  0  0  0  0  0  0  0  0  0
   -1.5000    0.0000    0.0000 C   0  0  0  0  0  0  0  0  0  0  0  0
   -3.0000    0.0000    0.0000 C   0  0  0  0  0  0  0  0  0  0  0  0
   -3.7500   -1.2990    0.0000 O   0  0  0  0  0  0  0  0  0  0  0  0
   -3.7500    1.2990    0.0000 N   0  0  0  0  0  0  0  0  0  0  0  0
   -5.2500    1.2990    0.0000 C   0  0  0  0  0  0  0  0  0  0  0  0
   -6.1317    0.0855    0.0000 N   0  0  0  0  0  0  0  0  0  0  0  0
   -7.5583    0.5490    0.0000 N   0  0  0  0  0  0  0  0  0  0  0  0
   -7.5583    2.0490    0.0000 N   0  0  0  0  0  0  0  0  0  0  0  0
   -6.1317    2.5126    0.0000 N   0  0  0  0  0  0  0  0  0  0  0  0
   -5.6682    3.9391    0.0000 C   0  0  0  0  0  0  0  0  0  0  0  0
   -4.2009    4.2510    0.0000 C   0  0  0  0  0  0  0  0  0  0  0  0
   -3.7374    5.6776    0.0000 C   0  0  0  0  0  0  0  0  0  0  0  0
   -4.7411    6.7923    0.0000 C   0  0  0  0  0  0  0  0  0  0  0  0
   -4.2776    8.2189    0.0000 C   0  0  0  0  0  0  0  0  0  0  0  0
   -5.2813    9.3336    0.0000 O   0  0  0  0  0  0  0  0  0  0  0  0
   -2.8104    8.5308    0.0000 N   0  0  0  0  0  0  0  0  0  0  0  0
   -2.3468    9.9574    0.0000 C   0  0  0  0  0  0  0  0  0  0  0  0
   -3.2285   11.1709    0.0000 N   0  0  0  0  0  0  0  0  0  0  0  0
   -2.3468   12.3844    0.0000 N   0  0  0  0  0  0  0  0  0  0  0  0
   -0.9202   11.9209    0.0000 N   0  0  0  0  0  0  0  0  0  0  0  0
   -0.9202   10.4209    0.0000 N   0  0  0  0  0  0  0  0  0  0  0  0
    0.2933    9.5392    0.0000 C   0  0  0  0  0  0  0  0  0  0  0  0
    0.1365    8.0474    0.0000 C   0  0  0  0  0  0  0  0  0  0  0  0
    1.3500    7.1657    0.0000 C   0  0  0  0  0  0  0  0  0  0  0  0
    2.7203    7.7758    0.0000 C   0  0  0  0  0  0  0  0  0  0  0  0
    2.8771    9.2676    0.0000 C   0  0  0  0  0  0  0  0  0  0  0  0
    1.6636   10.1493    0.0000 C   0  0  0  0  0  0  0  0  0  0  0  0
   -6.2083    6.4805    0.0000 C   0  0  0  0  0  0  0  0  0  0  0  0
   -6.6718    5.0539    0.0000 C   0  0  0  0  0  0  0  0  0  0  0  0
   -0.7500    1.2990    0.0000 C   0  0  0  0  0  0  0  0  0  0  0  0
    0.7500    1.2990    0.0000 C   0  0  0  0  0  0  0  0  0  0  0  0
  1  2  1  0
  2  3  2  0
  3  4  1  0
  4  5  2  0
  5  6  1  0
  6  7  2  0
  6  8  1  0
  8  9  1  0
  9 10  2  0
 10 11  1  0
 11 12  2  0
 12 13  1  0
 13 14  1  0
 14 15  2  0
 15 16  1  0
 16 17  2  0
 17 18  1  0
 18 19  2  0
 18 20  1  0
 20 21  1  0
 21 22  2  0
 22 23  1  0
 23 24  2  0
 24 25  1  0
 25 26  1  0
 26 27  2  0
 27 28  1  0
 28 29  2  0
 29 30  1  0
 30 31  2  0
 17 32  1  0
 32 33  2  0
  5 34  1  0
 34 35  1  0
 35  2  1  0
 13  9  1  0
 33 14  1  0
 25 21  1  0
 31 26  1  0
M  END
>  <Title>  (1118) 
idABQZgen7

$$$$
