
     RDKit          2D

 21 23  0  0  0  0  0  0  0  0999 V2000
    3.7500   -1.2990    0.0000 C   0  0  0  0  0  0  0  0  0  0  0  0
    3.0000    0.0000    0.0000 O   0  0  0  0  0  0  0  0  0  0  0  0
    1.5000    0.0000    0.0000 C   0  0  0  0  0  0  0  0  0  0  0  0
    0.7500   -1.2990    0.0000 C   0  0  0  0  0  0  0  0  0  0  0  0
   -0.7500   -1.2990    0.0000 C   0  0  0  0  0  0  0  0  0  0  0  0
   -1.5000    0.0000    0.0000 C   0  0  0  0  0  0  0  0  0  0  0  0
   -3.0000    0.0000    0.0000 C   0  0  0  0  0  0  0  0  0  0  0  0
   -3.7500    1.2990    0.0000 C   0  0  0  0  0  0  0  0  0  0  0  0
   -5.2500    1.2990    0.0000 C   0  0  0  0  0  0  0  0  0  0  0  0
   -6.1317    0.0855    0.0000 N   0  0  0  0  0  0  0  0  0  0  0  0
   -7.5583    0.5490    0.0000 N   0  0  0  0  0  0  0  0  0  0  0  0
   -7.5583    2.0490    0.0000 N   0  0  0  0  0  0  0  0  0  0  0  0
   -6.1317    2.5126    0.0000 N   0  0  0  0  0  0  0  0  0  0  0  0
   -5.6682    3.9391    0.0000 C   0  0  0  0  0  0  0  0  0  0  0  0
   -6.5498    5.1527    0.0000 C   0  0  0  0  0  0  0  0  0  0  0  0
   -5.6682    6.3662    0.0000 C   0  0  0  0  0  0  0  0  0  0  0  0
   -4.2416    5.9027    0.0000 C   0  0  0  0  0  0  0  0  0  0  0  0
   -3.0280    6.7844    0.0000 F   0  0  0  0  0  0  0  0  0  0  0  0
   -4.2416    4.4027    0.0000 C   0  0  0  0  0  0  0  0  0  0  0  0
   -0.7500    1.2990    0.0000 N   0  0  0  0  0  0  0  0  0  0  0  0
    0.7500    1.2990    0.0000 C   0  0  0  0  0  0  0  0  0  0  0  0
  1  2  1  0
  2  3  1  0
  3  4  2  0
  4  5  1  0
  5  6  2  0
  6  7  1  0
  7  8  1  0
  8  9  1  0
  9 10  2  0
 10 11  1  0
 11 12  2  0
 12 13  1  0
 13 14  1  0
 14 15  2  0
 15 16  1  0
 16 17  2  0
 17 18  1  0
 17 19  1  0
  6 20  1  0
 20 21  1  0
 21  3  1  0
 13  9  1  0
 19 14  1  0
M  END
>  <Title>  (1) 
idAAAAgen8

$$$$

     RDKit          2D

  8  8  0  0  0  0  0  0  0  0999 V2000
    3.0000    0.0000    0.0000 C   0  0  0  0  0  0  0  0  0  0  0  0
    1.5000    0.0000    0.0000 C   0  0  0  0  0  0  0  0  0  0  0  0
    0.7500   -1.2990    0.0000 C   0  0  0  0  0  0  0  0  0  0  0  0
   -0.7500   -1.2990    0.0000 C   0  0  0  0  0  0  0  0  0  0  0  0
   -1.5000    0.0000    0.0000 C   0  0  0  0  0  0  0  0  0  0  0  0
   -0.7500    1.2990    0.0000 C   0  0  0  0  0  0  0  0  0  0  0  0
    0.7500    1.2990    0.0000 C   0  0  0  0  0  0  0  0  0  0  0  0
    1.5000    2.5981    0.0000 N   0  0  0  0  0  0  0  0  0  0  0  0
  1  2  1  0
  2  3  2  0
  3  4  1  0
  4  5  2  0
  5  6  1  0
  6  7  2  0
  7  8  1  0
  7  2  1  0
M  END
>  <Title>  (2) 
idAAABgen8

$$$$

     RDKit          2D

 14 15  0  0  0  0  0  0  0  0999 V2000
    2.7760    0.0000    0.0000 O   0  0  0  0  0  0  0  0  0  0  0  0
    1.2760    0.0000    0.0000 C   0  0  0  0  0  0  0  0  0  0  0  0
    0.3943    1.2135    0.0000 N   0  0  0  0  0  0  0  0  0  0  0  0
   -1.0323    0.7500    0.0000 C   0  0  0  0  0  0  0  0  0  0  0  0
   -2.2458    1.6317    0.0000 O   0  0  0  0  0  0  0  0  0  0  0  0
   -2.0890    3.1235    0.0000 Cl  0  0  0  0  0  0  0  0  0  0  0  0
   -1.0323   -0.7500    0.0000 C   0  0  0  0  0  0  0  0  0  0  0  0
    0.3943   -1.2135    0.0000 C   0  0  0  0  0  0  0  0  0  0  0  0
    0.8578   -2.6401    0.0000 C   0  0  0  0  0  0  0  0  0  0  0  0
    2.2844   -3.1036    0.0000 C   0  0  0  0  0  0  0  0  0  0  0  0
    2.2844   -4.6036    0.0000 C   0  0  0  0  0  0  0  0  0  0  0  0
    0.8578   -5.0672    0.0000 C   0  0  0  0  0  0  0  0  0  0  0  0
    0.3943   -6.4937    0.0000 F   0  0  0  0  0  0  0  0  0  0  0  0
   -0.0239   -3.8536    0.0000 C   0  0  0  0  0  0  0  0  0  0  0  0
  1  2  2  0
  2  3  1  0
  3  4  1  0
  4  5  1  0
  5  6  1  0
  4  7  1  0
  7  8  2  0
  8  9  1  0
  9 10  2  0
 10 11  1  0
 11 12  2  0
 12 13  1  0
 12 14  1  0
  8  2  1  0
 14  9  1  0
M  END
>  <Title>  (3) 
idAAACgen8

$$$$

     RDKit          2D

 12 12  0  0  0  0  0  0  0  0999 V2000
    6.0000   -2.5981    0.0000 C   0  0  0  0  0  0  0  0  0  0  0  0
    5.2500   -1.2990    0.0000 C   0  0  0  0  0  0  0  0  0  0  0  0
    3.7500   -1.2990    0.0000 N   0  0  0  0  0  0  0  0  0  0  0  0
    3.0000    0.0000    0.0000 C   0  0  0  0  0  0  0  0  0  0  0  0
    3.7500    1.2990    0.0000 O   0  0  0  0  0  0  0  0  0  0  0  0
    1.5000    0.0000    0.0000 C   0  0  0  0  0  0  0  0  0  0  0  0
    0.7500   -1.2990    0.0000 C   0  0  0  0  0  0  0  0  0  0  0  0
   -0.7500   -1.2990    0.0000 C   0  0  0  0  0  0  0  0  0  0  0  0
   -1.5000    0.0000    0.0000 C   0  0  0  0  0  0  0  0  0  0  0  0
   -3.0000    0.0000    0.0000 C   0  0  0  0  0  0  0  0  0  0  0  0
   -0.7500    1.2990    0.0000 C   0  0  0  0  0  0  0  0  0  0  0  0
    0.7500    1.2990    0.0000 C   0  0  0  0  0  0  0  0  0  0  0  0
  1  2  1  0
  2  3  1  0
  3  4  1  0
  4  5  2  0
  4  6  1  0
  6  7  2  0
  7  8  1  0
  8  9  2  0
  9 10  1  0
  9 11  1  0
 11 12  2  0
 12  6  1  0
M  END
>  <Title>  (4) 
idAAADgen8

$$$$

     RDKit          2D

  8  8  0  0  0  0  0  0  0  0999 V2000
    3.0000    0.0000    0.0000 C   0  0  0  0  0  0  0  0  0  0  0  0
    1.5000    0.0000    0.0000 C   0  0  0  0  0  0  0  0  0  0  0  0
    0.7500   -1.2990    0.0000 C   0  0  0  0  0  0  0  0  0  0  0  0
   -0.7500   -1.2990    0.0000 C   0  0  0  0  0  0  0  0  0  0  0  0
   -1.5000    0.0000    0.0000 C   0  0  0  0  0  0  0  0  0  0  0  0
   -0.7500    1.2990    0.0000 C   0  0  0  0  0  0  0  0  0  0  0  0
    0.7500    1.2990    0.0000 C   0  0  0  0  0  0  0  0  0  0  0  0
    1.5000    2.5981    0.0000 N   0  0  0  0  0  0  0  0  0  0  0  0
  1  2  1  0
  2  3  2  0
  3  4  1  0
  4  5  2  0
  5  6  1  0
  6  7  2  0
  7  8  1  0
  7  2  1  0
M  END
>  <Title>  (5) 
idAAAEgen8

$$$$

     RDKit          2D

 18 19  0  0  0  0  0  0  0  0999 V2000
   -4.4388   -7.7572    0.0000 C   0  0  0  0  0  0  0  0  0  0  0  0
   -2.9716   -7.4453    0.0000 C   0  0  0  0  0  0  0  0  0  0  0  0
   -1.9679   -8.5600    0.0000 O   0  0  0  0  0  0  0  0  0  0  0  0
   -2.5081   -6.0187    0.0000 O   0  0  0  0  0  0  0  0  0  0  0  0
   -1.0409   -5.7068    0.0000 C   0  0  0  0  0  0  0  0  0  0  0  0
   -0.5773   -4.2803    0.0000 C   0  0  0  0  0  0  0  0  0  0  0  0
    0.8899   -3.9684    0.0000 N   0  0  0  0  0  0  0  0  0  0  0  0
    2.0046   -4.9721    0.0000 N   0  0  0  0  0  0  0  0  0  0  0  0
    3.3037   -4.2221    0.0000 N   0  0  0  0  0  0  0  0  0  0  0  0
    2.9918   -2.7549    0.0000 N   0  0  0  0  0  0  0  0  0  0  0  0
    1.5000   -2.5981    0.0000 C   0  0  0  0  0  0  0  0  0  0  0  0
    0.7500   -1.2990    0.0000 C   0  0  0  0  0  0  0  0  0  0  0  0
    1.5000    0.0000    0.0000 C   0  0  0  0  0  0  0  0  0  0  0  0
    0.7500    1.2990    0.0000 C   0  0  0  0  0  0  0  0  0  0  0  0
   -0.7500    1.2990    0.0000 C   0  0  0  0  0  0  0  0  0  0  0  0
   -1.5000    2.5981    0.0000 C   0  0  0  0  0  0  0  0  0  0  0  0
   -1.5000    0.0000    0.0000 C   0  0  0  0  0  0  0  0  0  0  0  0
   -0.7500   -1.2990    0.0000 C   0  0  0  0  0  0  0  0  0  0  0  0
  1  2  1  0
  2  3  2  0
  2  4  1  0
  4  5  1  0
  5  6  1  0
  6  7  1  0
  7  8  1  0
  8  9  2  0
  9 10  1  0
 10 11  2  0
 11 12  1  0
 12 13  2  0
 13 14  1  0
 14 15  2  0
 15 16  1  0
 15 17  1  0
 17 18  1  0
 11  7  1  0
 18 12  1  0
M  END
>  <Title>  (6) 
idAAAFgen8

$$$$

     RDKit          2D

 20 22  0  0  0  0  0  0  0  0999 V2000
   -0.0000   -3.4598    0.0000 C   0  0  0  0  0  0  0  0  0  0  0  0
   -0.0000   -1.9598    0.0000 C   0  0  0  0  0  0  0  0  0  0  0  0
    1.3858   -1.3858    0.0000 C   0  0  0  0  0  0  0  0  0  0  0  0
    1.9598   -0.0000    0.0000 C   0  0  0  0  0  0  0  0  0  0  0  0
    1.3858    1.3858    0.0000 C   0  0  0  0  0  0  0  0  0  0  0  0
    0.0000    1.9598    0.0000 C   0  0  0  0  0  0  0  0  0  0  0  0
   -1.3858    1.3858    0.0000 C   0  0  0  0  0  0  0  0  0  0  0  0
   -2.4465    2.4465    0.0000 N   0  0  0  0  0  0  0  0  0  0  0  0
   -3.9280    2.2118    0.0000 C   0  0  0  0  0  0  0  0  0  0  0  0
   -4.6090    3.5483    0.0000 C   0  0  0  0  0  0  0  0  0  0  0  0
   -3.5483    4.6090    0.0000 C   0  0  0  0  0  0  0  0  0  0  0  0
   -2.2118    3.9280    0.0000 C   0  0  0  0  0  0  0  0  0  0  0  0
   -0.8753    4.6090    0.0000 C   0  0  0  0  0  0  0  0  0  0  0  0
   -0.6407    6.0905    0.0000 N   0  0  0  0  0  0  0  0  0  0  0  0
    0.8409    6.3252    0.0000 N   0  0  0  0  0  0  0  0  0  0  0  0
    1.5219    4.9887    0.0000 N   0  0  0  0  0  0  0  0  0  0  0  0
    0.4612    3.9280    0.0000 N   0  0  0  0  0  0  0  0  0  0  0  0
    0.6958    2.4465    0.0000 O   0  0  0  0  0  0  0  0  0  0  0  0
   -1.9598    0.0000    0.0000 N   0  0  0  0  0  0  0  0  0  0  0  0
   -1.3858   -1.3858    0.0000 C   0  0  0  0  0  0  0  0  0  0  0  0
  1  2  1  0
  2  3  2  0
  3  4  1  0
  4  5  2  0
  5  6  1  0
  6  7  2  0
  7  8  1  0
  8  9  1  0
  9 10  2  0
 10 11  1  0
 11 12  2  0
 12 13  1  0
 13 14  2  0
 14 15  1  0
 15 16  2  0
 16 17  1  0
 17 18  1  0
  7 19  1  0
 19 20  2  0
 20  2  1  0
 12  8  1  0
 17 13  1  0
M  END
>  <Title>  (7) 
idAAAGgen8

$$$$

     RDKit          2D

  4  3  0  0  0  0  0  0  0  0999 V2000
    0.0000    0.0000    0.0000 C   0  0  0  0  0  0  0  0  0  0  0  0
    1.2990    0.7500    0.0000 C   0  0  0  0  0  0  0  0  0  0  0  0
    2.5981   -0.0000    0.0000 C   0  0  0  0  0  0  0  0  0  0  0  0
    3.8971    0.7500    0.0000 C   0  0  0  0  0  0  0  0  0  0  0  0
  1  2  1  0
  2  3  2  3
  3  4  1  0
M  END
>  <Title>  (8) 
idAAAHgen8

$$$$

     RDKit          2D

 18 19  0  0  0  0  0  0  0  0999 V2000
   -4.4388   -7.7572    0.0000 C   0  0  0  0  0  0  0  0  0  0  0  0
   -2.9716   -7.4453    0.0000 C   0  0  0  0  0  0  0  0  0  0  0  0
   -1.9679   -8.5600    0.0000 O   0  0  0  0  0  0  0  0  0  0  0  0
   -2.5081   -6.0187    0.0000 O   0  0  0  0  0  0  0  0  0  0  0  0
   -1.0409   -5.7068    0.0000 C   0  0  0  0  0  0  0  0  0  0  0  0
   -0.5773   -4.2803    0.0000 C   0  0  0  0  0  0  0  0  0  0  0  0
    0.8899   -3.9684    0.0000 N   0  0  0  0  0  0  0  0  0  0  0  0
    2.0046   -4.9721    0.0000 N   0  0  0  0  0  0  0  0  0  0  0  0
    3.3037   -4.2221    0.0000 N   0  0  0  0  0  0  0  0  0  0  0  0
    2.9918   -2.7549    0.0000 N   0  0  0  0  0  0  0  0  0  0  0  0
    1.5000   -2.5981    0.0000 C   0  0  0  0  0  0  0  0  0  0  0  0
    0.7500   -1.2990    0.0000 C   0  0  0  0  0  0  0  0  0  0  0  0
    1.5000    0.0000    0.0000 C   0  0  0  0  0  0  0  0  0  0  0  0
    0.7500    1.2990    0.0000 C   0  0  0  0  0  0  0  0  0  0  0  0
   -0.7500    1.2990    0.0000 C   0  0  0  0  0  0  0  0  0  0  0  0
   -1.5000    2.5981    0.0000 C   0  0  0  0  0  0  0  0  0  0  0  0
   -1.5000    0.0000    0.0000 C   0  0  0  0  0  0  0  0  0  0  0  0
   -0.7500   -1.2990    0.0000 C   0  0  0  0  0  0  0  0  0  0  0  0
  1  2  1  0
  2  3  2  0
  2  4  1  0
  4  5  1  0
  5  6  1  0
  6  7  1  0
  7  8  1  0
  8  9  2  0
  9 10  1  0
 10 11  2  0
 11 12  1  0
 12 13  2  0
 13 14  1  0
 14 15  2  0
 15 16  1  0
 15 17  1  0
 17 18  1  0
 11  7  1  0
 18 12  1  0
M  END
>  <Title>  (9) 
idAAAIgen8

$$$$

     RDKit          2D

  4  3  0  0  0  0  0  0  0  0999 V2000
    0.0000    0.0000    0.0000 C   0  0  0  0  0  0  0  0  0  0  0  0
    1.2990    0.7500    0.0000 C   0  0  0  0  0  0  0  0  0  0  0  0
    2.5981   -0.0000    0.0000 C   0  0  0  0  0  0  0  0  0  0  0  0
    3.8971    0.7500    0.0000 C   0  0  0  0  0  0  0  0  0  0  0  0
  1  2  1  0
  2  3  2  3
  3  4  1  0
M  END
>  <Title>  (10) 
idAAAJgen8

$$$$

     RDKit          2D

  6  6  0  0  0  0  0  0  0  0999 V2000
    2.7760    0.0000    0.0000 O   0  0  0  0  0  0  0  0  0  0  0  0
    1.2760    0.0000    0.0000 C   0  0  0  0  0  0  0  0  0  0  0  0
    0.3943    1.2135    0.0000 C   0  0  0  0  0  0  0  0  0  0  0  0
   -1.0323    0.7500    0.0000 C   0  0  0  0  0  0  0  0  0  0  0  0
   -1.0323   -0.7500    0.0000 C   0  0  0  0  0  0  0  0  0  0  0  0
    0.3943   -1.2135    0.0000 C   0  0  0  0  0  0  0  0  0  0  0  0
  1  2  1  0
  2  3  2  0
  3  4  1  0
  4  5  2  0
  5  6  1  0
  6  2  1  0
M  END
>  <Title>  (11) 
idAAAKgen8

$$$$

     RDKit          2D

  4  3  0  0  0  0  0  0  0  0999 V2000
    0.0000    0.0000    0.0000 C   0  0  0  0  0  0  0  0  0  0  0  0
    1.2990    0.7500    0.0000 C   0  0  0  0  0  0  0  0  0  0  0  0
    2.5981   -0.0000    0.0000 C   0  0  0  0  0  0  0  0  0  0  0  0
    3.8971    0.7500    0.0000 C   0  0  0  0  0  0  0  0  0  0  0  0
  1  2  1  0
  2  3  2  3
  3  4  1  0
M  END
>  <Title>  (12) 
idAAALgen8

$$$$

     RDKit          2D

  7  7  0  0  0  0  0  0  0  0999 V2000
    3.0000    0.0000    0.0000 C   0  0  0  0  0  0  0  0  0  0  0  0
    1.5000    0.0000    0.0000 C   0  0  0  0  0  0  0  0  0  0  0  0
    0.7500   -1.2990    0.0000 C   0  0  0  0  0  0  0  0  0  0  0  0
   -0.7500   -1.2990    0.0000 C   0  0  0  0  0  0  0  0  0  0  0  0
   -1.5000    0.0000    0.0000 C   0  0  0  0  0  0  0  0  0  0  0  0
   -0.7500    1.2990    0.0000 C   0  0  0  0  0  0  0  0  0  0  0  0
    0.7500    1.2990    0.0000 N   0  0  0  0  0  0  0  0  0  0  0  0
  1  2  1  0
  2  3  2  0
  3  4  1  0
  4  5  2  0
  5  6  1  0
  6  7  2  0
  7  2  1  0
M  END
>  <Title>  (13) 
idAAAMgen8

$$$$

     RDKit          2D

 21 23  0  0  0  0  0  0  0  0999 V2000
    8.6001   -1.3131    0.0000 C   0  0  0  0  0  0  0  0  0  0  0  0
    7.1512   -1.7013    0.0000 O   0  0  0  0  0  0  0  0  0  0  0  0
    6.0905   -0.6407    0.0000 N   0  0  0  0  0  0  0  0  0  0  0  0
    6.3252    0.8409    0.0000 N   0  0  0  0  0  0  0  0  0  0  0  0
    4.9887    1.5219    0.0000 N   0  0  0  0  0  0  0  0  0  0  0  0
    3.9280    0.4612    0.0000 N   0  0  0  0  0  0  0  0  0  0  0  0
    4.6090   -0.8753    0.0000 C   0  0  0  0  0  0  0  0  0  0  0  0
    3.9280   -2.2118    0.0000 C   0  0  0  0  0  0  0  0  0  0  0  0
    4.6090   -3.5483    0.0000 C   0  0  0  0  0  0  0  0  0  0  0  0
    3.5483   -4.6090    0.0000 C   0  0  0  0  0  0  0  0  0  0  0  0
    2.2118   -3.9280    0.0000 C   0  0  0  0  0  0  0  0  0  0  0  0
    2.4465   -2.4465    0.0000 N   0  0  0  0  0  0  0  0  0  0  0  0
    1.3858   -1.3858    0.0000 C   0  0  0  0  0  0  0  0  0  0  0  0
    1.9598    0.0000    0.0000 C   0  0  0  0  0  0  0  0  0  0  0  0
    1.3858    1.3858    0.0000 C   0  0  0  0  0  0  0  0  0  0  0  0
    0.0000    1.9598    0.0000 C   0  0  0  0  0  0  0  0  0  0  0  0
   -1.3858    1.3858    0.0000 C   0  0  0  0  0  0  0  0  0  0  0  0
   -1.9598    0.0000    0.0000 C   0  0  0  0  0  0  0  0  0  0  0  0
   -3.4598    0.0000    0.0000 C   0  0  0  0  0  0  0  0  0  0  0  0
   -1.3858   -1.3858    0.0000 C   0  0  0  0  0  0  0  0  0  0  0  0
   -0.0000   -1.9598    0.0000 N   0  0  0  0  0  0  0  0  0  0  0  0
  1  2  1  0
  2  3  1  0
  3  4  1  0
  4  5  2  0
  5  6  1  0
  6  7  2  0
  7  8  1  0
  8  9  2  0
  9 10  1  0
 10 11  2  0
 11 12  1  0
 12 13  1  0
 13 14  2  0
 14 15  1  0
 15 16  2  0
 16 17  1  0
 17 18  2  0
 18 19  1  0
 18 20  1  0
 20 21  2  0
  7  3  1  0
 12  8  1  0
 21 13  1  0
M  END
>  <Title>  (14) 
idAAANgen8

$$$$

     RDKit          2D

 15 16  0  0  0  0  0  0  0  0999 V2000
    5.0260    1.2990    0.0000 C   0  0  0  0  0  0  0  0  0  0  0  0
    3.5260    1.2990    0.0000 C   0  0  0  0  0  0  0  0  0  0  0  0
    2.7760    0.0000    0.0000 C   0  0  0  0  0  0  0  0  0  0  0  0
    1.2760    0.0000    0.0000 N   0  0  0  0  0  0  0  0  0  0  0  0
    0.3943    1.2135    0.0000 N   0  0  0  0  0  0  0  0  0  0  0  0
   -1.0323    0.7500    0.0000 N   0  0  0  0  0  0  0  0  0  0  0  0
   -1.0323   -0.7500    0.0000 N   0  0  0  0  0  0  0  0  0  0  0  0
    0.3943   -1.2135    0.0000 C   0  0  0  0  0  0  0  0  0  0  0  0
    0.8578   -2.6401    0.0000 C   0  0  0  0  0  0  0  0  0  0  0  0
   -0.1459   -3.7548    0.0000 C   0  0  0  0  0  0  0  0  0  0  0  0
    0.1660   -5.2220    0.0000 C   0  0  0  0  0  0  0  0  0  0  0  0
   -1.1330   -5.9720    0.0000 C   0  0  0  0  0  0  0  0  0  0  0  0
   -2.2478   -4.9684    0.0000 C   0  0  0  0  0  0  0  0  0  0  0  0
   -3.7150   -5.2802    0.0000 O   0  0  0  0  0  0  0  0  0  0  0  0
   -1.6377   -3.5980    0.0000 C   0  0  0  0  0  0  0  0  0  0  0  0
  1  2  1  0
  2  3  1  0
  3  4  1  0
  4  5  1  0
  5  6  2  0
  6  7  1  0
  7  8  2  0
  8  9  1  0
  9 10  1  0
 10 11  2  0
 11 12  1  0
 12 13  2  0
 13 14  1  0
 13 15  1  0
  8  4  1  0
 15 10  1  0
M  END
>  <Title>  (15) 
idAAAOgen8

$$$$

     RDKit          2D

 23 25  0  0  0  0  0  0  0  0999 V2000
    3.0000    0.0000    0.0000 C   0  0  0  0  0  0  0  0  0  0  0  0
    1.5000    0.0000    0.0000 C   0  0  0  0  0  0  0  0  0  0  0  0
    0.7500    1.2990    0.0000 C   0  0  0  0  0  0  0  0  0  0  0  0
   -0.7500    1.2990    0.0000 C   0  0  0  0  0  0  0  0  0  0  0  0
   -1.5000    0.0000    0.0000 C   0  0  0  0  0  0  0  0  0  0  0  0
   -3.0000    0.0000    0.0000 C   0  0  0  0  0  0  0  0  0  0  0  0
   -3.8817   -1.2135    0.0000 C   0  0  0  0  0  0  0  0  0  0  0  0
   -5.3083   -0.7500    0.0000 C   0  0  0  0  0  0  0  0  0  0  0  0
   -5.3083    0.7500    0.0000 N   0  0  0  0  0  0  0  0  0  0  0  0
   -3.8817    1.2135    0.0000 N   0  0  0  0  0  0  0  0  0  0  0  0
   -3.4182    2.6401    0.0000 C   0  0  0  0  0  0  0  0  0  0  0  0
   -1.9509    2.9520    0.0000 C   0  0  0  0  0  0  0  0  0  0  0  0
   -1.4874    4.3786    0.0000 C   0  0  0  0  0  0  0  0  0  0  0  0
   -2.4911    5.4933    0.0000 C   0  0  0  0  0  0  0  0  0  0  0  0
   -2.0276    6.9199    0.0000 C   0  0  0  0  0  0  0  0  0  0  0  0
   -3.0313    8.0346    0.0000 O   0  0  0  0  0  0  0  0  0  0  0  0
   -0.5604    7.2317    0.0000 N   0  0  0  0  0  0  0  0  0  0  0  0
   -0.0968    8.6583    0.0000 O   0  0  0  0  0  0  0  0  0  0  0  0
   -3.9583    5.1814    0.0000 C   0  0  0  0  0  0  0  0  0  0  0  0
   -4.4218    3.7548    0.0000 C   0  0  0  0  0  0  0  0  0  0  0  0
   -0.7500   -1.2990    0.0000 C   0  0  0  0  0  0  0  0  0  0  0  0
   -1.5000   -2.5981    0.0000 O   0  0  0  0  0  0  0  0  0  0  0  0
    0.7500   -1.2990    0.0000 N   0  0  0  0  0  0  0  0  0  0  0  0
  1  2  1  0
  2  3  2  0
  3  4  1  0
  4  5  2  0
  5  6  1  0
  6  7  2  0
  7  8  1  0
  8  9  2  0
  9 10  1  0
 10 11  1  0
 11 12  2  0
 12 13  1  0
 13 14  2  0
 14 15  1  0
 15 16  2  0
 15 17  1  0
 17 18  1  0
 14 19  1  0
 19 20  1  0
  5 21  1  0
 21 22  2  0
 21 23  1  0
 23  2  1  0
 10  6  1  0
 20 11  1  0
M  END
>  <Title>  (16) 
idAAAPgen8

$$$$

     RDKit          2D

  3  2  0  0  0  0  0  0  0  0999 V2000
    0.0000    0.0000    0.0000 C   0  0  0  0  0  0  0  0  0  0  0  0
    1.2990    0.7500    0.0000 C   0  0  0  0  0  0  0  0  0  0  0  0
    2.5981   -0.0000    0.0000 C   0  0  0  0  0  0  0  0  0  0  0  0
  1  2  1  0
  2  3  1  0
M  END
>  <Title>  (17) 
idAAAQgen8

$$$$

     RDKit          2D

  8  8  0  0  0  0  0  0  0  0999 V2000
    3.7500   -1.2990    0.0000 Cl  0  0  0  0  0  0  0  0  0  0  0  0
    3.0000    0.0000    0.0000 O   0  0  0  0  0  0  0  0  0  0  0  0
    1.5000    0.0000    0.0000 C   0  0  0  0  0  0  0  0  0  0  0  0
    0.7500   -1.2990    0.0000 C   0  0  0  0  0  0  0  0  0  0  0  0
   -0.7500   -1.2990    0.0000 C   0  0  0  0  0  0  0  0  0  0  0  0
   -1.5000    0.0000    0.0000 C   0  0  0  0  0  0  0  0  0  0  0  0
   -0.7500    1.2990    0.0000 C   0  0  0  0  0  0  0  0  0  0  0  0
    0.7500    1.2990    0.0000 N   0  0  0  0  0  0  0  0  0  0  0  0
  1  2  1  0
  2  3  1  0
  3  4  2  0
  4  5  1  0
  5  6  2  0
  6  7  1  0
  7  8  2  0
  8  3  1  0
M  END
>  <Title>  (18) 
idAAARgen8

$$$$

     RDKit          2D

  3  2  0  0  0  0  0  0  0  0999 V2000
    0.0000    0.0000    0.0000 C   0  0  0  0  0  0  0  0  0  0  0  0
    1.2990    0.7500    0.0000 C   0  0  0  0  0  0  0  0  0  0  0  0
    2.5981   -0.0000    0.0000 C   0  0  0  0  0  0  0  0  0  0  0  0
  1  2  1  0
  2  3  1  0
M  END
>  <Title>  (19) 
idAAASgen8

$$$$

     RDKit          2D

  8  8  0  0  0  0  0  0  0  0999 V2000
    3.0000    0.0000    0.0000 C   0  0  0  0  0  0  0  0  0  0  0  0
    1.5000    0.0000    0.0000 C   0  0  0  0  0  0  0  0  0  0  0  0
    0.7500   -1.2990    0.0000 C   0  0  0  0  0  0  0  0  0  0  0  0
   -0.7500   -1.2990    0.0000 N   0  0  0  0  0  0  0  0  0  0  0  0
   -1.5000   -2.5981    0.0000 C   0  0  0  0  0  0  0  0  0  0  0  0
   -1.5000    0.0000    0.0000 C   0  0  0  0  0  0  0  0  0  0  0  0
   -0.7500    1.2990    0.0000 C   0  0  0  0  0  0  0  0  0  0  0  0
    0.7500    1.2990    0.0000 C   0  0  0  0  0  0  0  0  0  0  0  0
  1  2  1  0
  2  3  2  0
  3  4  1  0
  4  5  1  0
  4  6  1  0
  6  7  1  0
  7  8  1  0
  8  2  1  0
M  END
>  <Title>  (20) 
idAAATgen8

$$$$

     RDKit          2D

  3  2  0  0  0  0  0  0  0  0999 V2000
    0.0000    0.0000    0.0000 C   0  0  0  0  0  0  0  0  0  0  0  0
    1.2990    0.7500    0.0000 C   0  0  0  0  0  0  0  0  0  0  0  0
    2.5981   -0.0000    0.0000 C   0  0  0  0  0  0  0  0  0  0  0  0
  1  2  1  0
  2  3  1  0
M  END
>  <Title>  (21) 
idAAAUgen8

$$$$

     RDKit          2D

 31 35  0  0  0  0  0  0  0  0999 V2000
    3.0000    0.0000    0.0000 C   0  0  0  0  0  0  0  0  0  0  0  0
    1.5000    0.0000    0.0000 C   0  0  0  0  0  0  0  0  0  0  0  0
    0.7500    1.2990    0.0000 C   0  0  0  0  0  0  0  0  0  0  0  0
   -0.7500    1.2990    0.0000 C   0  0  0  0  0  0  0  0  0  0  0  0
   -1.5000    0.0000    0.0000 C   0  0  0  0  0  0  0  0  0  0  0  0
   -3.0000    0.0000    0.0000 C   0  0  0  0  0  0  0  0  0  0  0  0
   -3.7500    1.2990    0.0000 C   0  0  0  0  0  0  0  0  0  0  0  0
   -5.2500    1.2990    0.0000 C   0  0  0  0  0  0  0  0  0  0  0  0
   -6.0000    0.0000    0.0000 C   0  0  0  0  0  0  0  0  0  0  0  0
   -7.5000    0.0000    0.0000 N   0  0  0  0  0  0  0  0  0  0  0  0
   -8.3817   -1.2135    0.0000 N   0  0  0  0  0  0  0  0  0  0  0  0
   -9.8083   -0.7500    0.0000 N   0  0  0  0  0  0  0  0  0  0  0  0
   -9.8083    0.7500    0.0000 N   0  0  0  0  0  0  0  0  0  0  0  0
   -8.3817    1.2135    0.0000 C   0  0  0  0  0  0  0  0  0  0  0  0
   -7.9182    2.6401    0.0000 N   0  0  0  0  0  0  0  0  0  0  0  0
   -8.7998    3.8536    0.0000 N   0  0  0  0  0  0  0  0  0  0  0  0
   -7.9182    5.0672    0.0000 N   0  0  0  0  0  0  0  0  0  0  0  0
   -6.4916    4.6036    0.0000 N   0  0  0  0  0  0  0  0  0  0  0  0
   -6.4916    3.1036    0.0000 C   0  0  0  0  0  0  0  0  0  0  0  0
   -5.2780    2.2220    0.0000 C   0  0  0  0  0  0  0  0  0  0  0  0
   -3.9077    2.8321    0.0000 C   0  0  0  0  0  0  0  0  0  0  0  0
   -3.5959    4.2993    0.0000 C   0  0  0  0  0  0  0  0  0  0  0  0
   -2.1041    4.4561    0.0000 C   0  0  0  0  0  0  0  0  0  0  0  0
   -1.4940    3.0858    0.0000 C   0  0  0  0  0  0  0  0  0  0  0  0
   -0.0267    2.7739    0.0000 O   0  0  0  0  0  0  0  0  0  0  0  0
   -2.6087    2.0821    0.0000 C   0  0  0  0  0  0  0  0  0  0  0  0
   -5.2500   -1.2990    0.0000 C   0  0  0  0  0  0  0  0  0  0  0  0
   -3.7500   -1.2990    0.0000 C   0  0  0  0  0  0  0  0  0  0  0  0
   -0.7500   -1.2990    0.0000 C   0  0  0  0  0  0  0  0  0  0  0  0
   -1.5000   -2.5981    0.0000 O   0  0  0  0  0  0  0  0  0  0  0  0
    0.7500   -1.2990    0.0000 N   0  0  0  0  0  0  0  0  0  0  0  0
  1  2  1  0
  2  3  2  0
  3  4  1  0
  4  5  2  0
  5  6  1  0
  6  7  2  0
  7  8  1  0
  8  9  2  0
  9 10  1  0
 10 11  1  0
 11 12  2  0
 12 13  1  0
 13 14  2  0
 14 15  1  0
 15 16  1  0
 16 17  2  0
 17 18  1  0
 18 19  2  0
 19 20  1  0
 20 21  1  0
 21 22  2  0
 22 23  1  0
 23 24  2  0
 24 25  1  0
 24 26  1  0
  9 27  1  0
 27 28  2  0
  5 29  1  0
 29 30  2  0
 29 31  1  0
 31  2  1  0
 28  6  1  0
 14 10  1  0
 19 15  1  0
 26 21  1  0
M  END
>  <Title>  (22) 
idAAAVgen8

$$$$

     RDKit          2D

  3  2  0  0  0  0  0  0  0  0999 V2000
    0.0000    0.0000    0.0000 C   0  0  0  0  0  0  0  0  0  0  0  0
    1.2990    0.7500    0.0000 C   0  0  0  0  0  0  0  0  0  0  0  0
    2.5981   -0.0000    0.0000 C   0  0  0  0  0  0  0  0  0  0  0  0
  1  2  1  0
  2  3  1  0
M  END
>  <Title>  (23) 
idAAAWgen8

$$$$

     RDKit          2D

 23 25  0  0  0  0  0  0  0  0999 V2000
    9.6607   -2.3738    0.0000 C   0  0  0  0  0  0  0  0  0  0  0  0
    8.6001   -1.3131    0.0000 C   0  0  0  0  0  0  0  0  0  0  0  0
    8.9883    0.1358    0.0000 O   0  0  0  0  0  0  0  0  0  0  0  0
    7.1512   -1.7013    0.0000 N   0  0  0  0  0  0  0  0  0  0  0  0
    6.0905   -0.6407    0.0000 N   0  0  0  0  0  0  0  0  0  0  0  0
    6.3252    0.8409    0.0000 N   0  0  0  0  0  0  0  0  0  0  0  0
    4.9887    1.5219    0.0000 N   0  0  0  0  0  0  0  0  0  0  0  0
    3.9280    0.4612    0.0000 N   0  0  0  0  0  0  0  0  0  0  0  0
    4.6090   -0.8753    0.0000 C   0  0  0  0  0  0  0  0  0  0  0  0
    3.9280   -2.2118    0.0000 C   0  0  0  0  0  0  0  0  0  0  0  0
    4.6090   -3.5483    0.0000 C   0  0  0  0  0  0  0  0  0  0  0  0
    3.5483   -4.6090    0.0000 C   0  0  0  0  0  0  0  0  0  0  0  0
    2.2118   -3.9280    0.0000 C   0  0  0  0  0  0  0  0  0  0  0  0
    2.4465   -2.4465    0.0000 N   0  0  0  0  0  0  0  0  0  0  0  0
    1.3858   -1.3858    0.0000 C   0  0  0  0  0  0  0  0  0  0  0  0
    1.9598    0.0000    0.0000 C   0  0  0  0  0  0  0  0  0  0  0  0
    1.3858    1.3858    0.0000 C   0  0  0  0  0  0  0  0  0  0  0  0
    0.0000    1.9598    0.0000 C   0  0  0  0  0  0  0  0  0  0  0  0
   -1.3858    1.3858    0.0000 C   0  0  0  0  0  0  0  0  0  0  0  0
   -1.9598    0.0000    0.0000 C   0  0  0  0  0  0  0  0  0  0  0  0
   -3.4598    0.0000    0.0000 C   0  0  0  0  0  0  0  0  0  0  0  0
   -1.3858   -1.3858    0.0000 C   0  0  0  0  0  0  0  0  0  0  0  0
   -0.0000   -1.9598    0.0000 N   0  0  0  0  0  0  0  0  0  0  0  0
  1  2  1  0
  2  3  2  0
  2  4  1  0
  4  5  1  0
  5  6  1  0
  6  7  2  0
  7  8  1  0
  8  9  2  0
  9 10  1  0
 10 11  2  0
 11 12  1  0
 12 13  2  0
 13 14  1  0
 14 15  1  0
 15 16  2  0
 16 17  1  0
 17 18  2  0
 18 19  1  0
 19 20  2  0
 20 21  1  0
 20 22  1  0
 22 23  2  0
  9  5  1  0
 14 10  1  0
 23 15  1  0
M  END
>  <Title>  (24) 
idAAAXgen8

$$$$

     RDKit          2D

  3  2  0  0  0  0  0  0  0  0999 V2000
    0.0000    0.0000    0.0000 C   0  0  0  0  0  0  0  0  0  0  0  0
    1.2990    0.7500    0.0000 C   0  0  0  0  0  0  0  0  0  0  0  0
    2.5981   -0.0000    0.0000 C   0  0  0  0  0  0  0  0  0  0  0  0
  1  2  1  0
  2  3  1  0
M  END
>  <Title>  (25) 
idAAAYgen8

$$$$

     RDKit          2D

  6  5  0  0  0  0  0  0  0  0999 V2000
    0.0000    0.0000    0.0000 C   0  0  0  0  0  0  0  0  0  0  0  0
    1.2990    0.7500    0.0000 C   0  0  0  0  0  0  0  0  0  0  0  0
    2.5981   -0.0000    0.0000 C   0  0  0  0  0  0  0  0  0  0  0  0
    3.8971    0.7500    0.0000 C   0  0  0  0  0  0  0  0  0  0  0  0
    5.1962   -0.0000    0.0000 C   0  0  0  0  0  0  0  0  0  0  0  0
    6.4952    0.7500    0.0000 O   0  0  0  0  0  0  0  0  0  0  0  0
  1  2  1  0
  2  3  2  3
  3  4  1  0
  4  5  2  3
  5  6  1  0
M  END
>  <Title>  (26) 
idAAAZgen8

$$$$

     RDKit          2D

  3  2  0  0  0  0  0  0  0  0999 V2000
    0.0000    0.0000    0.0000 C   0  0  0  0  0  0  0  0  0  0  0  0
    1.2990    0.7500    0.0000 C   0  0  0  0  0  0  0  0  0  0  0  0
    2.5981   -0.0000    0.0000 C   0  0  0  0  0  0  0  0  0  0  0  0
  1  2  1  0
  2  3  1  0
M  END
>  <Title>  (27) 
idAABAgen8

$$$$

     RDKit          2D

 36 40  0  0  0  0  0  0  0  0999 V2000
   10.7153    7.4455    0.0000 C   0  0  0  0  0  0  0  0  0  0  0  0
    9.3109    7.9725    0.0000 C   0  0  0  0  0  0  0  0  0  0  0  0
    9.0652    9.4523    0.0000 O   0  0  0  0  0  0  0  0  0  0  0  0
    8.1523    7.0199    0.0000 O   0  0  0  0  0  0  0  0  0  0  0  0
    6.7479    7.5469    0.0000 C   0  0  0  0  0  0  0  0  0  0  0  0
    5.5893    6.5943    0.0000 C   0  0  0  0  0  0  0  0  0  0  0  0
    4.1849    7.1213    0.0000 C   0  0  0  0  0  0  0  0  0  0  0  0
    3.7859    8.5673    0.0000 N   0  0  0  0  0  0  0  0  0  0  0  0
    2.2874    8.6346    0.0000 N   0  0  0  0  0  0  0  0  0  0  0  0
    1.7603    7.2302    0.0000 N   0  0  0  0  0  0  0  0  0  0  0  0
    2.9331    6.2950    0.0000 N   0  0  0  0  0  0  0  0  0  0  0  0
    2.8658    4.7965    0.0000 C   0  0  0  0  0  0  0  0  0  0  0  0
    4.0385    3.8613    0.0000 C   0  0  0  0  0  0  0  0  0  0  0  0
    3.5115    2.4569    0.0000 C   0  0  0  0  0  0  0  0  0  0  0  0
    2.0130    2.5242    0.0000 C   0  0  0  0  0  0  0  0  0  0  0  0
    1.0777    1.3515    0.0000 C   0  0  0  0  0  0  0  0  0  0  0  0
    1.7286    0.0000    0.0000 C   0  0  0  0  0  0  0  0  0  0  0  0
    1.0777   -1.3515    0.0000 C   0  0  0  0  0  0  0  0  0  0  0  0
   -0.3846   -1.6852    0.0000 N   0  0  0  0  0  0  0  0  0  0  0  0
   -1.5574   -0.7500    0.0000 C   0  0  0  0  0  0  0  0  0  0  0  0
   -1.5574    0.7500    0.0000 N   0  0  0  0  0  0  0  0  0  0  0  0
   -0.3846    1.6852    0.0000 N   0  0  0  0  0  0  0  0  0  0  0  0
   -0.7184    3.1476    0.0000 C   0  0  0  0  0  0  0  0  0  0  0  0
    0.3812    4.1679    0.0000 C   0  0  0  0  0  0  0  0  0  0  0  0
    0.0474    5.6303    0.0000 C   0  0  0  0  0  0  0  0  0  0  0  0
   -1.3860    6.0724    0.0000 C   0  0  0  0  0  0  0  0  0  0  0  0
   -2.4856    5.0522    0.0000 N   0  0  0  0  0  0  0  0  0  0  0  0
   -2.1518    3.5898    0.0000 C   0  0  0  0  0  0  0  0  0  0  0  0
   -3.2514    2.5695    0.0000 C   0  0  0  0  0  0  0  0  0  0  0  0
   -4.6847    3.0116    0.0000 C   0  0  0  0  0  0  0  0  0  0  0  0
   -5.7843    1.9914    0.0000 C   0  0  0  0  0  0  0  0  0  0  0  0
   -5.4505    0.5290    0.0000 C   0  0  0  0  0  0  0  0  0  0  0  0
   -6.5501   -0.4913    0.0000 C   0  0  0  0  0  0  0  0  0  0  0  0
   -4.0172    0.0868    0.0000 C   0  0  0  0  0  0  0  0  0  0  0  0
   -2.9176    1.1071    0.0000 C   0  0  0  0  0  0  0  0  0  0  0  0
    1.6139    3.9701    0.0000 N   0  0  0  0  0  0  0  0  0  0  0  0
  1  2  1  0
  2  3  2  0
  2  4  1  0
  4  5  1  0
  5  6  1  0
  6  7  1  0
  7  8  2  0
  8  9  1  0
  9 10  2  0
 10 11  1  0
 11 12  1  0
 12 13  1  0
 13 14  2  0
 14 15  1  0
 15 16  1  0
 16 17  1  0
 17 18  1  0
 18 19  1  0
 19 20  1  0
 20 21  1  0
 21 22  1  0
 22 23  1  0
 23 24  2  0
 24 25  1  0
 25 26  2  0
 26 27  1  0
 27 28  2  0
 28 29  1  0
 29 30  2  0
 30 31  1  0
 31 32  2  0
 32 33  1  0
 32 34  1  0
 34 35  1  0
 15 36  1  0
 11  7  1  0
 36 12  1  0
 22 16  1  0
 28 23  1  0
 35 29  1  0
M  END
>  <Title>  (28) 
idAABBgen8

$$$$

     RDKit          2D

 13 13  0  0  0  0  0  0  0  0999 V2000
    5.0260   -3.8971    0.0000 O   0  0  0  0  0  0  0  0  0  0  0  0
    5.7760   -2.5981    0.0000 C   0  0  0  0  0  0  0  0  0  0  0  0
    5.0260   -1.2990    0.0000 C   0  0  0  0  0  0  0  0  0  0  0  0
    3.5260   -1.2990    0.0000 C   0  0  0  0  0  0  0  0  0  0  0  0
    2.7760    0.0000    0.0000 C   0  0  0  0  0  0  0  0  0  0  0  0
    1.2760    0.0000    0.0000 C   0  0  0  0  0  0  0  0  0  0  0  0
    0.3943    1.2135    0.0000 C   0  0  0  0  0  0  0  0  0  0  0  0
   -1.0323    0.7500    0.0000 C   0  0  0  0  0  0  0  0  0  0  0  0
   -1.0323   -0.7500    0.0000 C   0  0  0  0  0  0  0  0  0  0  0  0
   -2.2458   -1.6317    0.0000 O   0  0  0  0  0  0  0  0  0  0  0  0
    0.3943   -1.2135    0.0000 C   0  0  0  0  0  0  0  0  0  0  0  0
    7.2760   -2.5981    0.0000 N   0  0  0  0  0  0  0  0  0  0  0  0
    8.0260   -3.8971    0.0000 O   0  0  0  0  0  0  0  0  0  0  0  0
  1  2  2  0
  2  3  1  0
  3  4  1  0
  4  5  1  0
  5  6  1  0
  6  7  2  0
  7  8  1  0
  8  9  2  0
  9 10  1  0
  9 11  1  0
  2 12  1  0
 12 13  1  0
 11  6  1  0
M  END
>  <Title>  (29) 
idAABCgen8

$$$$

     RDKit          2D

 26 29  0  0  0  0  0  0  0  0999 V2000
    5.6883   -3.2846    0.0000 C   0  0  0  0  0  0  0  0  0  0  0  0
    5.1403   -1.8883    0.0000 C   0  0  0  0  0  0  0  0  0  0  0  0
    3.6570   -1.6647    0.0000 C   0  0  0  0  0  0  0  0  0  0  0  0
    3.1090   -0.2684    0.0000 C   0  0  0  0  0  0  0  0  0  0  0  0
    4.0442    0.9043    0.0000 C   0  0  0  0  0  0  0  0  0  0  0  0
    3.4962    2.3006    0.0000 C   0  0  0  0  0  0  0  0  0  0  0  0
    4.4315    3.4734    0.0000 N   0  0  0  0  0  0  0  0  0  0  0  0
    3.8835    4.8697    0.0000 C   0  0  0  0  0  0  0  0  0  0  0  0
    2.4002    5.0933    0.0000 C   0  0  0  0  0  0  0  0  0  0  0  0
    1.4650    3.9205    0.0000 C   0  0  0  0  0  0  0  0  0  0  0  0
    2.0130    2.5242    0.0000 C   0  0  0  0  0  0  0  0  0  0  0  0
    1.0777    1.3515    0.0000 N   0  0  0  0  0  0  0  0  0  0  0  0
    1.7286    0.0000    0.0000 N   0  0  0  0  0  0  0  0  0  0  0  0
    1.0777   -1.3515    0.0000 C   0  0  0  0  0  0  0  0  0  0  0  0
   -0.3846   -1.6852    0.0000 N   0  0  0  0  0  0  0  0  0  0  0  0
   -1.5574   -0.7500    0.0000 C   0  0  0  0  0  0  0  0  0  0  0  0
   -1.5574    0.7500    0.0000 C   0  0  0  0  0  0  0  0  0  0  0  0
   -0.3846    1.6852    0.0000 C   0  0  0  0  0  0  0  0  0  0  0  0
   -0.7184    3.1476    0.0000 C   0  0  0  0  0  0  0  0  0  0  0  0
   -2.0977    3.7372    0.0000 C   0  0  0  0  0  0  0  0  0  0  0  0
   -1.9633    5.2311    0.0000 C   0  0  0  0  0  0  0  0  0  0  0  0
   -0.5009    5.5649    0.0000 C   0  0  0  0  0  0  0  0  0  0  0  0
    0.0887    6.9442    0.0000 O   0  0  0  0  0  0  0  0  0  0  0  0
    0.2685    4.2772    0.0000 N   0  0  0  0  0  0  0  0  0  0  0  0
    5.5275    0.6808    0.0000 C   0  0  0  0  0  0  0  0  0  0  0  0
    6.0755   -0.7155    0.0000 C   0  0  0  0  0  0  0  0  0  0  0  0
  1  2  1  0
  2  3  2  0
  3  4  1  0
  4  5  2  0
  5  6  1  0
  6  7  2  0
  7  8  1  0
  8  9  2  0
  9 10  1  0
 10 11  2  0
 11 12  1  0
 12 13  1  0
 13 14  1  0
 14 15  1  0
 15 16  1  0
 16 17  1  0
 17 18  1  0
 18 19  1  0
 19 20  1  0
 20 21  2  0
 21 22  1  0
 22 23  1  0
 22 24  1  0
  5 25  1  0
 25 26  1  0
 26  2  1  0
 11  6  1  0
 18 12  1  0
 24 19  1  0
M  END
>  <Title>  (30) 
idAABDgen8

$$$$

     RDKit          2D

 19 21  0  0  0  0  0  0  0  0999 V2000
    3.0000    0.0000    0.0000 C   0  0  0  0  0  0  0  0  0  0  0  0
    1.5000    0.0000    0.0000 C   0  0  0  0  0  0  0  0  0  0  0  0
    0.7500    1.2990    0.0000 C   0  0  0  0  0  0  0  0  0  0  0  0
   -0.7500    1.2990    0.0000 C   0  0  0  0  0  0  0  0  0  0  0  0
   -1.5000    0.0000    0.0000 C   0  0  0  0  0  0  0  0  0  0  0  0
   -3.0000    0.0000    0.0000 C   0  0  0  0  0  0  0  0  0  0  0  0
   -3.8817   -1.2135    0.0000 N   0  0  0  0  0  0  0  0  0  0  0  0
   -5.3083   -0.7500    0.0000 N   0  0  0  0  0  0  0  0  0  0  0  0
   -5.3083    0.7500    0.0000 N   0  0  0  0  0  0  0  0  0  0  0  0
   -3.8817    1.2135    0.0000 N   0  0  0  0  0  0  0  0  0  0  0  0
   -3.4182    2.6401    0.0000 C   0  0  0  0  0  0  0  0  0  0  0  0
   -4.2998    3.8536    0.0000 C   0  0  0  0  0  0  0  0  0  0  0  0
   -3.4182    5.0672    0.0000 C   0  0  0  0  0  0  0  0  0  0  0  0
   -1.9916    4.6036    0.0000 C   0  0  0  0  0  0  0  0  0  0  0  0
   -0.7780    5.4853    0.0000 F   0  0  0  0  0  0  0  0  0  0  0  0
   -1.9916    3.1036    0.0000 C   0  0  0  0  0  0  0  0  0  0  0  0
   -0.7500   -1.2990    0.0000 C   0  0  0  0  0  0  0  0  0  0  0  0
   -1.5000   -2.5981    0.0000 O   0  0  0  0  0  0  0  0  0  0  0  0
    0.7500   -1.2990    0.0000 N   0  0  0  0  0  0  0  0  0  0  0  0
  1  2  1  0
  2  3  2  0
  3  4  1  0
  4  5  2  0
  5  6  1  0
  6  7  2  0
  7  8  1  0
  8  9  2  0
  9 10  1  0
 10 11  1  0
 11 12  2  0
 12 13  1  0
 13 14  2  0
 14 15  1  0
 14 16  1  0
  5 17  1  0
 17 18  2  0
 17 19  1  0
 19  2  1  0
 10  6  1  0
 16 11  1  0
M  END
>  <Title>  (31) 
idAABEgen8

$$$$

     RDKit          2D

 18 20  0  0  0  0  0  0  0  0999 V2000
   -1.5000    2.5981    0.0000 O   0  0  0  0  0  0  0  0  0  0  0  0
   -0.7500    1.2990    0.0000 C   0  0  0  0  0  0  0  0  0  0  0  0
   -1.5000    0.0000    0.0000 C   0  0  0  0  0  0  0  0  0  0  0  0
   -0.7500   -1.2990    0.0000 C   0  0  0  0  0  0  0  0  0  0  0  0
    0.7500   -1.2990    0.0000 C   0  0  0  0  0  0  0  0  0  0  0  0
    1.5000   -0.0000    0.0000 C   0  0  0  0  0  0  0  0  0  0  0  0
    0.7500    1.2990    0.0000 C   0  0  0  0  0  0  0  0  0  0  0  0
    1.5000    2.5981    0.0000 C   0  0  0  0  0  0  0  0  0  0  0  0
    0.8899    3.9684    0.0000 N   0  0  0  0  0  0  0  0  0  0  0  0
    2.0046    4.9721    0.0000 N   0  0  0  0  0  0  0  0  0  0  0  0
    3.3037    4.2221    0.0000 N   0  0  0  0  0  0  0  0  0  0  0  0
    2.9918    2.7549    0.0000 N   0  0  0  0  0  0  0  0  0  0  0  0
    3.9955    1.6402    0.0000 C   0  0  0  0  0  0  0  0  0  0  0  0
    3.6836    0.1729    0.0000 C   0  0  0  0  0  0  0  0  0  0  0  0
    4.9826   -0.5771    0.0000 C   0  0  0  0  0  0  0  0  0  0  0  0
    6.0974    0.4266    0.0000 C   0  0  0  0  0  0  0  0  0  0  0  0
    7.5646    0.1148    0.0000 F   0  0  0  0  0  0  0  0  0  0  0  0
    5.4873    1.7969    0.0000 C   0  0  0  0  0  0  0  0  0  0  0  0
  1  2  2  0
  2  3  1  0
  3  4  1  0
  4  5  2  0
  5  6  1  0
  6  7  2  0
  7  8  1  0
  8  9  2  0
  9 10  1  0
 10 11  2  0
 11 12  1  0
 12 13  1  0
 13 14  2  0
 14 15  1  0
 15 16  2  0
 16 17  1  0
 16 18  1  0
  7  2  1  0
 12  8  1  0
 18 13  1  0
M  END
>  <Title>  (32) 
idAABFgen8

$$$$

     RDKit          2D

  4  3  0  0  0  0  0  0  0  0999 V2000
    0.0000    0.0000    0.0000 C   0  0  0  0  0  0  0  0  0  0  0  0
    1.2990    0.7500    0.0000 C   0  0  0  0  0  0  0  0  0  0  0  0
    2.5981   -0.0000    0.0000 C   0  0  0  0  0  0  0  0  0  0  0  0
    3.8971    0.7500    0.0000 F   0  0  0  0  0  0  0  0  0  0  0  0
  1  2  1  0
  2  3  2  3
  3  4  1  0
M  END
>  <Title>  (33) 
idAABGgen8

$$$$

     RDKit          2D

  6  6  0  0  0  0  0  0  0  0999 V2000
    1.5000    0.0000    0.0000 C   0  0  0  0  0  0  0  0  0  0  0  0
    0.7500   -1.2990    0.0000 C   0  0  0  0  0  0  0  0  0  0  0  0
   -0.7500   -1.2990    0.0000 C   0  0  0  0  0  0  0  0  0  0  0  0
   -1.5000    0.0000    0.0000 C   0  0  0  0  0  0  0  0  0  0  0  0
   -0.7500    1.2990    0.0000 C   0  0  0  0  0  0  0  0  0  0  0  0
    0.7500    1.2990    0.0000 C   0  0  0  0  0  0  0  0  0  0  0  0
  1  2  2  0
  2  3  1  0
  3  4  2  0
  4  5  1  0
  5  6  2  0
  6  1  1  0
M  END
>  <Title>  (34) 
idAABHgen8

$$$$

     RDKit          2D

 23 25  0  0  0  0  0  0  0  0999 V2000
    9.6607   -2.3738    0.0000 C   0  0  0  0  0  0  0  0  0  0  0  0
    8.6001   -1.3131    0.0000 C   0  0  0  0  0  0  0  0  0  0  0  0
    8.9883    0.1358    0.0000 O   0  0  0  0  0  0  0  0  0  0  0  0
    7.1512   -1.7013    0.0000 O   0  0  0  0  0  0  0  0  0  0  0  0
    6.0905   -0.6407    0.0000 N   0  0  0  0  0  0  0  0  0  0  0  0
    6.3252    0.8409    0.0000 N   0  0  0  0  0  0  0  0  0  0  0  0
    4.9887    1.5219    0.0000 N   0  0  0  0  0  0  0  0  0  0  0  0
    3.9280    0.4612    0.0000 N   0  0  0  0  0  0  0  0  0  0  0  0
    4.6090   -0.8753    0.0000 C   0  0  0  0  0  0  0  0  0  0  0  0
    3.9280   -2.2118    0.0000 C   0  0  0  0  0  0  0  0  0  0  0  0
    4.6090   -3.5483    0.0000 C   0  0  0  0  0  0  0  0  0  0  0  0
    3.5483   -4.6090    0.0000 C   0  0  0  0  0  0  0  0  0  0  0  0
    2.2118   -3.9280    0.0000 C   0  0  0  0  0  0  0  0  0  0  0  0
    2.4465   -2.4465    0.0000 N   0  0  0  0  0  0  0  0  0  0  0  0
    1.3858   -1.3858    0.0000 C   0  0  0  0  0  0  0  0  0  0  0  0
    1.9598    0.0000    0.0000 C   0  0  0  0  0  0  0  0  0  0  0  0
    1.3858    1.3858    0.0000 C   0  0  0  0  0  0  0  0  0  0  0  0
    0.0000    1.9598    0.0000 C   0  0  0  0  0  0  0  0  0  0  0  0
   -1.3858    1.3858    0.0000 C   0  0  0  0  0  0  0  0  0  0  0  0
   -1.9598    0.0000    0.0000 C   0  0  0  0  0  0  0  0  0  0  0  0
   -3.4598    0.0000    0.0000 C   0  0  0  0  0  0  0  0  0  0  0  0
   -1.3858   -1.3858    0.0000 C   0  0  0  0  0  0  0  0  0  0  0  0
   -0.0000   -1.9598    0.0000 N   0  0  0  0  0  0  0  0  0  0  0  0
  1  2  1  0
  2  3  2  0
  2  4  1  0
  4  5  1  0
  5  6  1  0
  6  7  2  0
  7  8  1  0
  8  9  2  0
  9 10  1  0
 10 11  2  0
 11 12  1  0
 12 13  2  0
 13 14  1  0
 14 15  1  0
 15 16  2  0
 16 17  1  0
 17 18  2  0
 18 19  1  0
 19 20  2  0
 20 21  1  0
 20 22  1  0
 22 23  2  0
  9  5  1  0
 14 10  1  0
 23 15  1  0
M  END
>  <Title>  (35) 
idAABIgen8

$$$$

     RDKit          2D

 31 35  0  0  0  0  0  0  0  0999 V2000
    5.6883   -3.2846    0.0000 C   0  0  0  0  0  0  0  0  0  0  0  0
    5.1403   -1.8883    0.0000 C   0  0  0  0  0  0  0  0  0  0  0  0
    3.6570   -1.6647    0.0000 C   0  0  0  0  0  0  0  0  0  0  0  0
    3.1090   -0.2684    0.0000 C   0  0  0  0  0  0  0  0  0  0  0  0
    4.0442    0.9043    0.0000 C   0  0  0  0  0  0  0  0  0  0  0  0
    3.4962    2.3006    0.0000 C   0  0  0  0  0  0  0  0  0  0  0  0
    4.4315    3.4734    0.0000 N   0  0  0  0  0  0  0  0  0  0  0  0
    3.8835    4.8697    0.0000 C   0  0  0  0  0  0  0  0  0  0  0  0
    2.4002    5.0933    0.0000 C   0  0  0  0  0  0  0  0  0  0  0  0
    1.4650    3.9205    0.0000 C   0  0  0  0  0  0  0  0  0  0  0  0
    2.0130    2.5242    0.0000 C   0  0  0  0  0  0  0  0  0  0  0  0
    1.0777    1.3515    0.0000 N   0  0  0  0  0  0  0  0  0  0  0  0
    1.7286    0.0000    0.0000 N   0  0  0  0  0  0  0  0  0  0  0  0
    1.0777   -1.3515    0.0000 C   0  0  0  0  0  0  0  0  0  0  0  0
   -0.3846   -1.6852    0.0000 N   0  0  0  0  0  0  0  0  0  0  0  0
   -1.5574   -0.7500    0.0000 C   0  0  0  0  0  0  0  0  0  0  0  0
   -1.5574    0.7500    0.0000 C   0  0  0  0  0  0  0  0  0  0  0  0
   -0.3846    1.6852    0.0000 C   0  0  0  0  0  0  0  0  0  0  0  0
   -0.7184    3.1476    0.0000 C   0  0  0  0  0  0  0  0  0  0  0  0
   -2.0977    3.7372    0.0000 C   0  0  0  0  0  0  0  0  0  0  0  0
   -1.9633    5.2311    0.0000 C   0  0  0  0  0  0  0  0  0  0  0  0
   -0.5009    5.5649    0.0000 C   0  0  0  0  0  0  0  0  0  0  0  0
    0.0887    6.9442    0.0000 N   0  0  0  0  0  0  0  0  0  0  0  0
   -0.6807    8.2319    0.0000 N   0  0  0  0  0  0  0  0  0  0  0  0
    0.3062    9.3615    0.0000 N   0  0  0  0  0  0  0  0  0  0  0  0
    1.6855    8.7719    0.0000 N   0  0  0  0  0  0  0  0  0  0  0  0
    1.5511    7.2780    0.0000 C   0  0  0  0  0  0  0  0  0  0  0  0
    2.6807    6.2911    0.0000 F   0  0  0  0  0  0  0  0  0  0  0  0
    0.2685    4.2772    0.0000 N   0  0  0  0  0  0  0  0  0  0  0  0
    5.5275    0.6808    0.0000 C   0  0  0  0  0  0  0  0  0  0  0  0
    6.0755   -0.7155    0.0000 C   0  0  0  0  0  0  0  0  0  0  0  0
  1  2  1  0
  2  3  2  0
  3  4  1  0
  4  5  2  0
  5  6  1  0
  6  7  2  0
  7  8  1  0
  8  9  2  0
  9 10  1  0
 10 11  2  0
 11 12  1  0
 12 13  1  0
 13 14  1  0
 14 15  1  0
 15 16  1  0
 16 17  1  0
 17 18  1  0
 18 19  1  0
 19 20  1  0
 20 21  2  0
 21 22  1  0
 22 23  1  0
 23 24  1  0
 24 25  2  0
 25 26  1  0
 26 27  2  0
 27 28  1  0
 22 29  1  0
  5 30  1  0
 30 31  1  0
 31  2  1  0
 11  6  1  0
 18 12  1  0
 29 19  1  0
 27 23  1  0
M  END
>  <Title>  (36) 
idAABJgen8

$$$$

     RDKit          2D

  5  5  0  0  0  0  0  0  0  0999 V2000
    1.2760    0.0000    0.0000 C   0  0  0  0  0  0  0  0  0  0  0  0
    0.3943    1.2135    0.0000 C   0  0  0  0  0  0  0  0  0  0  0  0
   -1.0323    0.7500    0.0000 C   0  0  0  0  0  0  0  0  0  0  0  0
   -1.0323   -0.7500    0.0000 C   0  0  0  0  0  0  0  0  0  0  0  0
    0.3943   -1.2135    0.0000 C   0  0  0  0  0  0  0  0  0  0  0  0
  1  2  2  0
  2  3  1  0
  3  4  1  0
  4  5  2  0
  5  1  1  0
M  END
>  <Title>  (37) 
idAABKgen8

$$$$

     RDKit          2D

 31 35  0  0  0  0  0  0  0  0999 V2000
    5.6883   -3.2846    0.0000 C   0  0  0  0  0  0  0  0  0  0  0  0
    5.1403   -1.8883    0.0000 C   0  0  0  0  0  0  0  0  0  0  0  0
    3.6570   -1.6647    0.0000 C   0  0  0  0  0  0  0  0  0  0  0  0
    3.1090   -0.2684    0.0000 C   0  0  0  0  0  0  0  0  0  0  0  0
    4.0442    0.9043    0.0000 C   0  0  0  0  0  0  0  0  0  0  0  0
    3.4962    2.3006    0.0000 C   0  0  0  0  0  0  0  0  0  0  0  0
    4.4315    3.4734    0.0000 N   0  0  0  0  0  0  0  0  0  0  0  0
    3.8835    4.8697    0.0000 C   0  0  0  0  0  0  0  0  0  0  0  0
    2.4002    5.0933    0.0000 C   0  0  0  0  0  0  0  0  0  0  0  0
    1.4650    3.9205    0.0000 C   0  0  0  0  0  0  0  0  0  0  0  0
    2.0130    2.5242    0.0000 C   0  0  0  0  0  0  0  0  0  0  0  0
    1.0777    1.3515    0.0000 N   0  0  0  0  0  0  0  0  0  0  0  0
    1.7286    0.0000    0.0000 N   0  0  0  0  0  0  0  0  0  0  0  0
    1.0777   -1.3515    0.0000 C   0  0  0  0  0  0  0  0  0  0  0  0
   -0.3846   -1.6852    0.0000 N   0  0  0  0  0  0  0  0  0  0  0  0
   -1.5574   -0.7500    0.0000 C   0  0  0  0  0  0  0  0  0  0  0  0
   -1.5574    0.7500    0.0000 C   0  0  0  0  0  0  0  0  0  0  0  0
   -0.3846    1.6852    0.0000 C   0  0  0  0  0  0  0  0  0  0  0  0
   -0.7184    3.1476    0.0000 C   0  0  0  0  0  0  0  0  0  0  0  0
   -2.0977    3.7372    0.0000 C   0  0  0  0  0  0  0  0  0  0  0  0
   -1.9633    5.2311    0.0000 C   0  0  0  0  0  0  0  0  0  0  0  0
   -0.5009    5.5649    0.0000 C   0  0  0  0  0  0  0  0  0  0  0  0
    0.0887    6.9442    0.0000 N   0  0  0  0  0  0  0  0  0  0  0  0
   -0.6807    8.2319    0.0000 N   0  0  0  0  0  0  0  0  0  0  0  0
    0.3062    9.3615    0.0000 N   0  0  0  0  0  0  0  0  0  0  0  0
    1.6855    8.7719    0.0000 N   0  0  0  0  0  0  0  0  0  0  0  0
    1.5511    7.2780    0.0000 C   0  0  0  0  0  0  0  0  0  0  0  0
    2.6807    6.2911    0.0000 F   0  0  0  0  0  0  0  0  0  0  0  0
    0.2685    4.2772    0.0000 N   0  0  0  0  0  0  0  0  0  0  0  0
    5.5275    0.6808    0.0000 C   0  0  0  0  0  0  0  0  0  0  0  0
    6.0755   -0.7155    0.0000 C   0  0  0  0  0  0  0  0  0  0  0  0
  1  2  1  0
  2  3  2  0
  3  4  1  0
  4  5  2  0
  5  6  1  0
  6  7  2  0
  7  8  1  0
  8  9  2  0
  9 10  1  0
 10 11  2  0
 11 12  1  0
 12 13  1  0
 13 14  1  0
 14 15  1  0
 15 16  1  0
 16 17  1  0
 17 18  1  0
 18 19  1  0
 19 20  1  0
 20 21  2  0
 21 22  1  0
 22 23  1  0
 23 24  1  0
 24 25  2  0
 25 26  1  0
 26 27  2  0
 27 28  1  0
 22 29  1  0
  5 30  1  0
 30 31  1  0
 31  2  1  0
 11  6  1  0
 18 12  1  0
 29 19  1  0
 27 23  1  0
M  END
>  <Title>  (38) 
idAABLgen8

$$$$

     RDKit          2D

  5  5  0  0  0  0  0  0  0  0999 V2000
    1.2760    0.0000    0.0000 C   0  0  0  0  0  0  0  0  0  0  0  0
    0.3943    1.2135    0.0000 C   0  0  0  0  0  0  0  0  0  0  0  0
   -1.0323    0.7500    0.0000 C   0  0  0  0  0  0  0  0  0  0  0  0
   -1.0323   -0.7500    0.0000 C   0  0  0  0  0  0  0  0  0  0  0  0
    0.3943   -1.2135    0.0000 C   0  0  0  0  0  0  0  0  0  0  0  0
  1  2  2  0
  2  3  1  0
  3  4  1  0
  4  5  2  0
  5  1  1  0
M  END
>  <Title>  (39) 
idAABMgen8

$$$$

     RDKit          2D

 14 14  0  0  0  0  0  0  0  0999 V2000
    6.0000   -2.5981    0.0000 C   0  0  0  0  0  0  0  0  0  0  0  0
    5.2500   -1.2990    0.0000 C   0  0  0  0  0  0  0  0  0  0  0  0
    3.7500   -1.2990    0.0000 C   0  0  0  0  0  0  0  0  0  0  0  0
    3.0000    0.0000    0.0000 O   0  0  0  0  0  0  0  0  0  0  0  0
    1.5000    0.0000    0.0000 C   0  0  0  0  0  0  0  0  0  0  0  0
    0.7500   -1.2990    0.0000 C   0  0  0  0  0  0  0  0  0  0  0  0
   -0.7500   -1.2990    0.0000 C   0  0  0  0  0  0  0  0  0  0  0  0
   -1.5000    0.0000    0.0000 C   0  0  0  0  0  0  0  0  0  0  0  0
   -3.0000    0.0000    0.0000 C   0  0  0  0  0  0  0  0  0  0  0  0
   -3.7500    1.2990    0.0000 C   0  0  0  0  0  0  0  0  0  0  0  0
   -5.2500    1.2990    0.0000 O   0  0  0  0  0  0  0  0  0  0  0  0
   -0.7500    1.2990    0.0000 C   0  0  0  0  0  0  0  0  0  0  0  0
   -1.5000    2.5981    0.0000 O   0  0  0  0  0  0  0  0  0  0  0  0
    0.7500    1.2990    0.0000 N   0  0  0  0  0  0  0  0  0  0  0  0
  1  2  1  0
  2  3  1  0
  3  4  1  0
  4  5  1  0
  5  6  2  0
  6  7  1  0
  7  8  2  0
  8  9  1  0
  9 10  2  3
 10 11  1  0
  8 12  1  0
 12 13  2  0
 12 14  1  0
 14  5  1  0
M  END
>  <Title>  (40) 
idAABNgen8

$$$$

     RDKit          2D

 17 18  0  0  0  0  0  0  0  0999 V2000
   -1.0409   -5.7068    0.0000 C   0  0  0  0  0  0  0  0  0  0  0  0
   -0.5773   -4.2803    0.0000 C   0  0  0  0  0  0  0  0  0  0  0  0
    0.8899   -3.9684    0.0000 C   0  0  0  0  0  0  0  0  0  0  0  0
    2.0046   -4.9721    0.0000 C   0  0  0  0  0  0  0  0  0  0  0  0
    3.3037   -4.2221    0.0000 C   0  0  0  0  0  0  0  0  0  0  0  0
    2.9918   -2.7549    0.0000 N   0  0  0  0  0  0  0  0  0  0  0  0
    1.5000   -2.5981    0.0000 N   0  0  0  0  0  0  0  0  0  0  0  0
    0.7500   -1.2990    0.0000 C   0  0  0  0  0  0  0  0  0  0  0  0
    1.5000    0.0000    0.0000 C   0  0  0  0  0  0  0  0  0  0  0  0
    0.7500    1.2990    0.0000 C   0  0  0  0  0  0  0  0  0  0  0  0
   -0.7500    1.2990    0.0000 C   0  0  0  0  0  0  0  0  0  0  0  0
   -1.5000    2.5981    0.0000 C   0  0  0  0  0  0  0  0  0  0  0  0
   -3.0000    2.5981    0.0000 O   0  0  0  0  0  0  0  0  0  0  0  0
   -0.7500    3.8971    0.0000 N   0  0  0  0  0  0  0  0  0  0  0  0
   -1.5000    5.1962    0.0000 O   0  0  0  0  0  0  0  0  0  0  0  0
   -1.5000    0.0000    0.0000 C   0  0  0  0  0  0  0  0  0  0  0  0
   -0.7500   -1.2990    0.0000 C   0  0  0  0  0  0  0  0  0  0  0  0
  1  2  1  0
  2  3  1  0
  3  4  2  0
  4  5  1  0
  5  6  2  0
  6  7  1  0
  7  8  1  0
  8  9  2  0
  9 10  1  0
 10 11  2  0
 11 12  1  0
 12 13  2  0
 12 14  1  0
 14 15  1  0
 11 16  1  0
 16 17  1  0
  7  3  1  0
 17  8  1  0
M  END
>  <Title>  (41) 
idAABOgen8

$$$$

     RDKit          2D

 14 14  0  0  0  0  0  0  0  0999 V2000
    6.0000   -2.5981    0.0000 C   0  0  0  0  0  0  0  0  0  0  0  0
    5.2500   -1.2990    0.0000 C   0  0  0  0  0  0  0  0  0  0  0  0
    3.7500   -1.2990    0.0000 C   0  0  0  0  0  0  0  0  0  0  0  0
    3.0000    0.0000    0.0000 O   0  0  0  0  0  0  0  0  0  0  0  0
    1.5000    0.0000    0.0000 C   0  0  0  0  0  0  0  0  0  0  0  0
    0.7500   -1.2990    0.0000 C   0  0  0  0  0  0  0  0  0  0  0  0
   -0.7500   -1.2990    0.0000 C   0  0  0  0  0  0  0  0  0  0  0  0
   -1.5000    0.0000    0.0000 C   0  0  0  0  0  0  0  0  0  0  0  0
   -3.0000    0.0000    0.0000 C   0  0  0  0  0  0  0  0  0  0  0  0
   -3.7500    1.2990    0.0000 C   0  0  0  0  0  0  0  0  0  0  0  0
   -5.2500    1.2990    0.0000 O   0  0  0  0  0  0  0  0  0  0  0  0
   -0.7500    1.2990    0.0000 C   0  0  0  0  0  0  0  0  0  0  0  0
   -1.5000    2.5981    0.0000 O   0  0  0  0  0  0  0  0  0  0  0  0
    0.7500    1.2990    0.0000 N   0  0  0  0  0  0  0  0  0  0  0  0
  1  2  1  0
  2  3  1  0
  3  4  1  0
  4  5  1  0
  5  6  2  0
  6  7  1  0
  7  8  2  0
  8  9  1  0
  9 10  2  3
 10 11  1  0
  8 12  1  0
 12 13  2  0
 12 14  1  0
 14  5  1  0
M  END
>  <Title>  (42) 
idAABPgen8

$$$$

     RDKit          2D

 22 24  0  0  0  0  0  0  0  0999 V2000
    9.6607   -2.3738    0.0000 C   0  0  0  0  0  0  0  0  0  0  0  0
    8.6001   -1.3131    0.0000 O   0  0  0  0  0  0  0  0  0  0  0  0
    7.1512   -1.7013    0.0000 O   0  0  0  0  0  0  0  0  0  0  0  0
    6.0905   -0.6407    0.0000 N   0  0  0  0  0  0  0  0  0  0  0  0
    6.3252    0.8409    0.0000 N   0  0  0  0  0  0  0  0  0  0  0  0
    4.9887    1.5219    0.0000 N   0  0  0  0  0  0  0  0  0  0  0  0
    3.9280    0.4612    0.0000 N   0  0  0  0  0  0  0  0  0  0  0  0
    4.6090   -0.8753    0.0000 C   0  0  0  0  0  0  0  0  0  0  0  0
    3.9280   -2.2118    0.0000 C   0  0  0  0  0  0  0  0  0  0  0  0
    4.6090   -3.5483    0.0000 C   0  0  0  0  0  0  0  0  0  0  0  0
    3.5483   -4.6090    0.0000 C   0  0  0  0  0  0  0  0  0  0  0  0
    2.2118   -3.9280    0.0000 C   0  0  0  0  0  0  0  0  0  0  0  0
    2.4465   -2.4465    0.0000 N   0  0  0  0  0  0  0  0  0  0  0  0
    1.3858   -1.3858    0.0000 C   0  0  0  0  0  0  0  0  0  0  0  0
    1.9598    0.0000    0.0000 C   0  0  0  0  0  0  0  0  0  0  0  0
    1.3858    1.3858    0.0000 C   0  0  0  0  0  0  0  0  0  0  0  0
    0.0000    1.9598    0.0000 C   0  0  0  0  0  0  0  0  0  0  0  0
   -1.3858    1.3858    0.0000 C   0  0  0  0  0  0  0  0  0  0  0  0
   -1.9598    0.0000    0.0000 C   0  0  0  0  0  0  0  0  0  0  0  0
   -3.4598    0.0000    0.0000 C   0  0  0  0  0  0  0  0  0  0  0  0
   -1.3858   -1.3858    0.0000 C   0  0  0  0  0  0  0  0  0  0  0  0
   -0.0000   -1.9598    0.0000 N   0  0  0  0  0  0  0  0  0  0  0  0
  1  2  1  0
  2  3  1  0
  3  4  1  0
  4  5  1  0
  5  6  2  0
  6  7  1  0
  7  8  2  0
  8  9  1  0
  9 10  2  0
 10 11  1  0
 11 12  2  0
 12 13  1  0
 13 14  1  0
 14 15  2  0
 15 16  1  0
 16 17  2  0
 17 18  1  0
 18 19  2  0
 19 20  1  0
 19 21  1  0
 21 22  2  0
  8  4  1  0
 13  9  1  0
 22 14  1  0
M  END
>  <Title>  (43) 
idAABQgen8

$$$$

     RDKit          2D

 25 28  0  0  0  0  0  0  0  0999 V2000
  -10.4512   -3.2524    0.0000 C   0  0  0  0  0  0  0  0  0  0  0  0
   -8.9594   -3.0956    0.0000 C   0  0  0  0  0  0  0  0  0  0  0  0
   -8.3493   -1.7253    0.0000 C   0  0  0  0  0  0  0  0  0  0  0  0
   -9.2310   -0.5118    0.0000 C   0  0  0  0  0  0  0  0  0  0  0  0
   -8.6209    0.8585    0.0000 C   0  0  0  0  0  0  0  0  0  0  0  0
   -7.1291    1.0153    0.0000 C   0  0  0  0  0  0  0  0  0  0  0  0
   -6.5190    2.3856    0.0000 C   0  0  0  0  0  0  0  0  0  0  0  0
   -7.4006    3.5992    0.0000 O   0  0  0  0  0  0  0  0  0  0  0  0
   -5.0272    2.5424    0.0000 N   0  0  0  0  0  0  0  0  0  0  0  0
   -4.4171    3.9127    0.0000 C   0  0  0  0  0  0  0  0  0  0  0  0
   -5.1671    5.2118    0.0000 N   0  0  0  0  0  0  0  0  0  0  0  0
   -4.1634    6.3265    0.0000 N   0  0  0  0  0  0  0  0  0  0  0  0
   -2.7931    5.7164    0.0000 N   0  0  0  0  0  0  0  0  0  0  0  0
   -2.9499    4.2246    0.0000 N   0  0  0  0  0  0  0  0  0  0  0  0
   -1.8351    3.2209    0.0000 C   0  0  0  0  0  0  0  0  0  0  0  0
   -0.4086    3.6844    0.0000 C   0  0  0  0  0  0  0  0  0  0  0  0
    0.7062    2.6807    0.0000 C   0  0  0  0  0  0  0  0  0  0  0  0
    0.3943    1.2135    0.0000 C   0  0  0  0  0  0  0  0  0  0  0  0
    1.2760    0.0000    0.0000 C   0  0  0  0  0  0  0  0  0  0  0  0
    0.3943   -1.2135    0.0000 N   0  0  0  0  0  0  0  0  0  0  0  0
   -1.0323   -0.7500    0.0000 N   0  0  0  0  0  0  0  0  0  0  0  0
   -1.0323    0.7500    0.0000 C   0  0  0  0  0  0  0  0  0  0  0  0
   -2.1470    1.7537    0.0000 N   0  0  0  0  0  0  0  0  0  0  0  0
   -6.2474   -0.1982    0.0000 C   0  0  0  0  0  0  0  0  0  0  0  0
   -6.8575   -1.5685    0.0000 C   0  0  0  0  0  0  0  0  0  0  0  0
  1  2  1  0
  2  3  1  0
  3  4  2  0
  4  5  1  0
  5  6  2  0
  6  7  1  0
  7  8  2  0
  7  9  1  0
  9 10  1  0
 10 11  2  0
 11 12  1  0
 12 13  2  0
 13 14  1  0
 14 15  1  0
 15 16  2  0
 16 17  1  0
 17 18  2  0
 18 19  1  0
 19 20  2  0
 20 21  1  0
 21 22  2  0
 22 23  1  0
  6 24  1  0
 24 25  2  0
 25  3  1  0
 14 10  1  0
 23 15  1  0
 22 18  1  0
M  END
>  <Title>  (44) 
idAABRgen8

$$$$

     RDKit          2D

 19 21  0  0  0  0  0  0  0  0999 V2000
    7.5646   -0.1148    0.0000 C   0  0  0  0  0  0  0  0  0  0  0  0
    6.0974   -0.4266    0.0000 C   0  0  0  0  0  0  0  0  0  0  0  0
    4.9826    0.5771    0.0000 C   0  0  0  0  0  0  0  0  0  0  0  0
    3.6836   -0.1729    0.0000 C   0  0  0  0  0  0  0  0  0  0  0  0
    3.9955   -1.6402    0.0000 C   0  0  0  0  0  0  0  0  0  0  0  0
    2.9918   -2.7549    0.0000 N   0  0  0  0  0  0  0  0  0  0  0  0
    3.3037   -4.2221    0.0000 N   0  0  0  0  0  0  0  0  0  0  0  0
    2.0046   -4.9721    0.0000 N   0  0  0  0  0  0  0  0  0  0  0  0
    0.8899   -3.9684    0.0000 N   0  0  0  0  0  0  0  0  0  0  0  0
    1.5000   -2.5981    0.0000 C   0  0  0  0  0  0  0  0  0  0  0  0
    0.7500   -1.2990    0.0000 C   0  0  0  0  0  0  0  0  0  0  0  0
    1.5000    0.0000    0.0000 C   0  0  0  0  0  0  0  0  0  0  0  0
    0.7500    1.2990    0.0000 C   0  0  0  0  0  0  0  0  0  0  0  0
   -0.7500    1.2990    0.0000 C   0  0  0  0  0  0  0  0  0  0  0  0
   -1.5000    2.5981    0.0000 C   0  0  0  0  0  0  0  0  0  0  0  0
   -1.5000    0.0000    0.0000 N   0  0  0  0  0  0  0  0  0  0  0  0
   -0.7500   -1.2990    0.0000 C   0  0  0  0  0  0  0  0  0  0  0  0
   -1.5000   -2.5981    0.0000 O   0  0  0  0  0  0  0  0  0  0  0  0
    5.4873   -1.7969    0.0000 C   0  0  0  0  0  0  0  0  0  0  0  0
  1  2  1  0
  2  3  2  0
  3  4  1  0
  4  5  2  0
  5  6  1  0
  6  7  1  0
  7  8  2  0
  8  9  1  0
  9 10  2  0
 10 11  1  0
 11 12  2  0
 12 13  1  0
 13 14  2  0
 14 15  1  0
 14 16  1  0
 16 17  1  0
 17 18  2  0
  5 19  1  0
 19  2  1  0
 10  6  1  0
 17 11  1  0
M  END
>  <Title>  (45) 
idAABSgen8

$$$$

     RDKit          2D

  8  8  0  0  0  0  0  0  0  0999 V2000
    3.0000    0.0000    0.0000 C   0  0  0  0  0  0  0  0  0  0  0  0
    1.5000    0.0000    0.0000 C   0  0  0  0  0  0  0  0  0  0  0  0
    0.7500   -1.2990    0.0000 C   0  0  0  0  0  0  0  0  0  0  0  0
   -0.7500   -1.2990    0.0000 C   0  0  0  0  0  0  0  0  0  0  0  0
   -1.5000    0.0000    0.0000 C   0  0  0  0  0  0  0  0  0  0  0  0
   -0.7500    1.2990    0.0000 C   0  0  0  0  0  0  0  0  0  0  0  0
    0.7500    1.2990    0.0000 C   0  0  0  0  0  0  0  0  0  0  0  0
    1.5000    2.5981    0.0000 O   0  0  0  0  0  0  0  0  0  0  0  0
  1  2  1  0
  2  3  2  0
  3  4  1  0
  4  5  2  0
  5  6  1  0
  6  7  2  0
  7  8  1  0
  7  2  1  0
M  END
>  <Title>  (46) 
idAABTgen8

$$$$

     RDKit          2D

 19 21  0  0  0  0  0  0  0  0999 V2000
    7.5646   -0.1148    0.0000 C   0  0  0  0  0  0  0  0  0  0  0  0
    6.0974   -0.4266    0.0000 C   0  0  0  0  0  0  0  0  0  0  0  0
    4.9826    0.5771    0.0000 C   0  0  0  0  0  0  0  0  0  0  0  0
    3.6836   -0.1729    0.0000 C   0  0  0  0  0  0  0  0  0  0  0  0
    3.9955   -1.6402    0.0000 C   0  0  0  0  0  0  0  0  0  0  0  0
    2.9918   -2.7549    0.0000 N   0  0  0  0  0  0  0  0  0  0  0  0
    3.3037   -4.2221    0.0000 N   0  0  0  0  0  0  0  0  0  0  0  0
    2.0046   -4.9721    0.0000 N   0  0  0  0  0  0  0  0  0  0  0  0
    0.8899   -3.9684    0.0000 N   0  0  0  0  0  0  0  0  0  0  0  0
    1.5000   -2.5981    0.0000 C   0  0  0  0  0  0  0  0  0  0  0  0
    0.7500   -1.2990    0.0000 C   0  0  0  0  0  0  0  0  0  0  0  0
    1.5000    0.0000    0.0000 C   0  0  0  0  0  0  0  0  0  0  0  0
    0.7500    1.2990    0.0000 C   0  0  0  0  0  0  0  0  0  0  0  0
   -0.7500    1.2990    0.0000 C   0  0  0  0  0  0  0  0  0  0  0  0
   -1.5000    2.5981    0.0000 C   0  0  0  0  0  0  0  0  0  0  0  0
   -1.5000    0.0000    0.0000 N   0  0  0  0  0  0  0  0  0  0  0  0
   -0.7500   -1.2990    0.0000 C   0  0  0  0  0  0  0  0  0  0  0  0
   -1.5000   -2.5981    0.0000 O   0  0  0  0  0  0  0  0  0  0  0  0
    5.4873   -1.7969    0.0000 C   0  0  0  0  0  0  0  0  0  0  0  0
  1  2  1  0
  2  3  2  0
  3  4  1  0
  4  5  2  0
  5  6  1  0
  6  7  1  0
  7  8  2  0
  8  9  1  0
  9 10  2  0
 10 11  1  0
 11 12  2  0
 12 13  1  0
 13 14  2  0
 14 15  1  0
 14 16  1  0
 16 17  1  0
 17 18  2  0
  5 19  1  0
 19  2  1  0
 10  6  1  0
 17 11  1  0
M  END
>  <Title>  (47) 
idAABUgen8

$$$$

     RDKit          2D

 11 11  0  0  0  0  0  0  0  0999 V2000
    5.2500   -1.2990    0.0000 C   0  0  0  0  0  0  0  0  0  0  0  0
    3.7500   -1.2990    0.0000 C   0  0  0  0  0  0  0  0  0  0  0  0
    3.0000    0.0000    0.0000 C   0  0  0  0  0  0  0  0  0  0  0  0
    1.5000    0.0000    0.0000 C   0  0  0  0  0  0  0  0  0  0  0  0
    0.7500   -1.2990    0.0000 C   0  0  0  0  0  0  0  0  0  0  0  0
   -0.7500   -1.2990    0.0000 C   0  0  0  0  0  0  0  0  0  0  0  0
   -1.5000    0.0000    0.0000 C   0  0  0  0  0  0  0  0  0  0  0  0
   -3.0000    0.0000    0.0000 C   0  0  0  0  0  0  0  0  0  0  0  0
   -0.7500    1.2990    0.0000 N   0  0  0  0  0  0  0  0  0  0  0  0
    0.7500    1.2990    0.0000 C   0  0  0  0  0  0  0  0  0  0  0  0
    1.5000    2.5981    0.0000 O   0  0  0  0  0  0  0  0  0  0  0  0
  1  2  1  0
  2  3  2  3
  3  4  1  0
  4  5  2  0
  5  6  1  0
  6  7  2  0
  7  8  1  0
  7  9  1  0
  9 10  1  0
 10 11  2  0
 10  4  1  0
M  END
>  <Title>  (48) 
idAABVgen8

$$$$

     RDKit          2D

  5  4  0  0  0  0  0  0  0  0999 V2000
    0.0000    0.0000    0.0000 C   0  0  0  0  0  0  0  0  0  0  0  0
    1.2990    0.7500    0.0000 C   0  0  0  0  0  0  0  0  0  0  0  0
    2.5981   -0.0000    0.0000 C   0  0  0  0  0  0  0  0  0  0  0  0
    3.8971    0.7500    0.0000 O   0  0  0  0  0  0  0  0  0  0  0  0
    5.1962   -0.0000    0.0000 Cl  0  0  0  0  0  0  0  0  0  0  0  0
  1  2  1  0
  2  3  1  0
  3  4  1  0
  4  5  1  0
M  END
>  <Title>  (49) 
idAABWgen8

$$$$

     RDKit          2D

 11 11  0  0  0  0  0  0  0  0999 V2000
    5.2500   -1.2990    0.0000 C   0  0  0  0  0  0  0  0  0  0  0  0
    3.7500   -1.2990    0.0000 C   0  0  0  0  0  0  0  0  0  0  0  0
    3.0000    0.0000    0.0000 C   0  0  0  0  0  0  0  0  0  0  0  0
    1.5000    0.0000    0.0000 C   0  0  0  0  0  0  0  0  0  0  0  0
    0.7500   -1.2990    0.0000 C   0  0  0  0  0  0  0  0  0  0  0  0
   -0.7500   -1.2990    0.0000 C   0  0  0  0  0  0  0  0  0  0  0  0
   -1.5000    0.0000    0.0000 C   0  0  0  0  0  0  0  0  0  0  0  0
   -3.0000    0.0000    0.0000 C   0  0  0  0  0  0  0  0  0  0  0  0
   -0.7500    1.2990    0.0000 N   0  0  0  0  0  0  0  0  0  0  0  0
    0.7500    1.2990    0.0000 C   0  0  0  0  0  0  0  0  0  0  0  0
    1.5000    2.5981    0.0000 O   0  0  0  0  0  0  0  0  0  0  0  0
  1  2  1  0
  2  3  2  3
  3  4  1  0
  4  5  2  0
  5  6  1  0
  6  7  2  0
  7  8  1  0
  7  9  1  0
  9 10  1  0
 10 11  2  0
 10  4  1  0
M  END
>  <Title>  (50) 
idAABXgen8

$$$$

     RDKit          2D

 56 63  0  0  0  0  0  0  0  0999 V2000
   -9.6189    5.9373    0.0000 C   0  0  0  0  0  0  0  0  0  0  0  0
   -8.4054    6.8190    0.0000 C   0  0  0  0  0  0  0  0  0  0  0  0
   -8.5622    8.3108    0.0000 C   0  0  0  0  0  0  0  0  0  0  0  0
   -7.3486    9.1925    0.0000 C   0  0  0  0  0  0  0  0  0  0  0  0
   -5.9783    8.5824    0.0000 C   0  0  0  0  0  0  0  0  0  0  0  0
   -4.7648    9.4640    0.0000 C   0  0  0  0  0  0  0  0  0  0  0  0
   -4.9216   10.9558    0.0000 O   0  0  0  0  0  0  0  0  0  0  0  0
   -3.3945    8.8539    0.0000 N   0  0  0  0  0  0  0  0  0  0  0  0
   -2.1810    9.7356    0.0000 C   0  0  0  0  0  0  0  0  0  0  0  0
   -2.1810   11.2356    0.0000 N   0  0  0  0  0  0  0  0  0  0  0  0
   -0.7544   11.6991    0.0000 N   0  0  0  0  0  0  0  0  0  0  0  0
    0.1273   10.4856    0.0000 N   0  0  0  0  0  0  0  0  0  0  0  0
   -0.7544    9.2721    0.0000 N   0  0  0  0  0  0  0  0  0  0  0  0
   -0.2908    7.8455    0.0000 C   0  0  0  0  0  0  0  0  0  0  0  0
   -1.5489    7.0285    0.0000 C   0  0  0  0  0  0  0  0  0  0  0  0
   -2.2298    5.6920    0.0000 C   0  0  0  0  0  0  0  0  0  0  0  0
   -2.1513    4.1941    0.0000 C   0  0  0  0  0  0  0  0  0  0  0  0
   -0.7248    4.6576    0.0000 C   0  0  0  0  0  0  0  0  0  0  0  0
    0.6118    3.9766    0.0000 C   0  0  0  0  0  0  0  0  0  0  0  0
    1.7524    4.9508    0.0000 C   0  0  0  0  0  0  0  0  0  0  0  0
    3.2109    4.6006    0.0000 C   0  0  0  0  0  0  0  0  0  0  0  0
    3.9947    5.8796    0.0000 C   0  0  0  0  0  0  0  0  0  0  0  0
    3.0205    7.0202    0.0000 C   0  0  0  0  0  0  0  0  0  0  0  0
    3.3707    8.4787    0.0000 C   0  0  0  0  0  0  0  0  0  0  0  0
    4.7565    9.0528    0.0000 N   0  0  0  0  0  0  0  0  0  0  0  0
    4.6388   10.5481    0.0000 N   0  0  0  0  0  0  0  0  0  0  0  0
    3.1802   10.8983    0.0000 N   0  0  0  0  0  0  0  0  0  0  0  0
    2.3965    9.6194    0.0000 N   0  0  0  0  0  0  0  0  0  0  0  0
    1.6347    6.4462    0.0000 C   0  0  0  0  0  0  0  0  0  0  0  0
    0.3557    7.2299    0.0000 O   0  0  0  0  0  0  0  0  0  0  0  0
    1.0753    2.5500    0.0000 C   0  0  0  0  0  0  0  0  0  0  0  0
    2.7581    3.1506    0.0000 C   0  0  0  0  0  0  0  0  0  0  0  0
    3.4391    4.4871    0.0000 C   0  0  0  0  0  0  0  0  0  0  0  0
    3.3606    5.9850    0.0000 C   0  0  0  0  0  0  0  0  0  0  0  0
    4.7871    6.4485    0.0000 C   0  0  0  0  0  0  0  0  0  0  0  0
    5.0990    7.9158    0.0000 O   0  0  0  0  0  0  0  0  0  0  0  0
    5.9019    5.4448    0.0000 N   0  0  0  0  0  0  0  0  0  0  0  0
    7.3285    5.9084    0.0000 C   0  0  0  0  0  0  0  0  0  0  0  0
    8.4432    4.9047    0.0000 C   0  0  0  0  0  0  0  0  0  0  0  0
    9.8698    5.3682    0.0000 C   0  0  0  0  0  0  0  0  0  0  0  0
   10.1816    6.8354    0.0000 C   0  0  0  0  0  0  0  0  0  0  0  0
    9.0669    7.8391    0.0000 C   0  0  0  0  0  0  0  0  0  0  0  0
    7.6403    7.3756    0.0000 C   0  0  0  0  0  0  0  0  0  0  0  0
    2.5436    7.2430    0.0000 C   0  0  0  0  0  0  0  0  0  0  0  0
    1.2071    7.9240    0.0000 C   0  0  0  0  0  0  0  0  0  0  0  0
    0.3943    1.2135    0.0000 N   0  0  0  0  0  0  0  0  0  0  0  0
    1.2760    0.0000    0.0000 N   0  0  0  0  0  0  0  0  0  0  0  0
    0.3943   -1.2135    0.0000 N   0  0  0  0  0  0  0  0  0  0  0  0
   -1.0323   -0.7500    0.0000 N   0  0  0  0  0  0  0  0  0  0  0  0
   -1.0323    0.7500    0.0000 C   0  0  0  0  0  0  0  0  0  0  0  0
   -2.3688    1.4310    0.0000 N   0  0  0  0  0  0  0  0  0  0  0  0
   -2.8323    2.8576    0.0000 C   0  0  0  0  0  0  0  0  0  0  0  0
   -4.3277    2.9753    0.0000 O   0  0  0  0  0  0  0  0  0  0  0  0
   -5.8215    7.0906    0.0000 C   0  0  0  0  0  0  0  0  0  0  0  0
   -4.4512    6.4805    0.0000 C   0  0  0  0  0  0  0  0  0  0  0  0
   -7.0351    6.2089    0.0000 C   0  0  0  0  0  0  0  0  0  0  0  0
  1  2  1  0
  2  3  2  0
  3  4  1  0
  4  5  2  0
  5  6  1  0
  6  7  2  0
  6  8  1  0
  8  9  1  0
  9 10  2  0
 10 11  1  0
 11 12  2  0
 12 13  1  0
 13 14  1  0
 14 15  2  0
 15 16  1  0
 16 17  2  0
 17 18  1  0
 18 19  2  0
 19 20  1  0
 20 21  2  0
 21 22  1  0
 22 23  2  0
 23 24  1  0
 24 25  2  0
 25 26  1  0
 26 27  2  0
 27 28  1  0
 23 29  1  0
 29 30  2  0
 19 31  1  0
 31 32  2  0
 32 33  1  0
 33 34  2  0
 34 35  1  0
 35 36  2  0
 35 37  1  0
 37 38  1  0
 38 39  2  0
 39 40  1  0
 40 41  2  0
 41 42  1  0
 42 43  2  0
 34 44  1  0
 44 45  2  0
 31 46  1  0
 46 47  1  0
 47 48  2  0
 48 49  1  0
 49 50  2  0
 50 51  1  0
 51 52  1  0
 52 53  2  0
  5 54  1  0
 54 55  1  0
 54 56  2  0
 56  2  1  0
 13  9  1  0
 45 14  1  0
 50 46  1  0
 52 17  1  0
 29 20  1  0
 43 38  1  0
 28 24  1  0
M  END
>  <Title>  (51) 
idAABYgen8

$$$$

     RDKit          2D

 40 45  0  0  0  0  0  0  0  0999 V2000
    3.7500   -1.2990    0.0000 C   0  0  0  0  0  0  0  0  0  0  0  0
    3.0000    0.0000    0.0000 O   0  0  0  0  0  0  0  0  0  0  0  0
    1.5000    0.0000    0.0000 C   0  0  0  0  0  0  0  0  0  0  0  0
    0.7500   -1.2990    0.0000 C   0  0  0  0  0  0  0  0  0  0  0  0
   -0.7500   -1.2990    0.0000 C   0  0  0  0  0  0  0  0  0  0  0  0
   -1.5000    0.0000    0.0000 C   0  0  0  0  0  0  0  0  0  0  0  0
   -3.0000    0.0000    0.0000 C   0  0  0  0  0  0  0  0  0  0  0  0
   -3.7500   -1.2990    0.0000 O   0  0  0  0  0  0  0  0  0  0  0  0
   -3.7500    1.2990    0.0000 N   0  0  0  0  0  0  0  0  0  0  0  0
   -5.2500    1.2990    0.0000 C   0  0  0  0  0  0  0  0  0  0  0  0
   -6.1317    0.0855    0.0000 N   0  0  0  0  0  0  0  0  0  0  0  0
   -7.5583    0.5490    0.0000 N   0  0  0  0  0  0  0  0  0  0  0  0
   -7.5583    2.0490    0.0000 N   0  0  0  0  0  0  0  0  0  0  0  0
   -6.1317    2.5126    0.0000 N   0  0  0  0  0  0  0  0  0  0  0  0
   -5.6682    3.9391    0.0000 C   0  0  0  0  0  0  0  0  0  0  0  0
   -4.2009    4.2510    0.0000 C   0  0  0  0  0  0  0  0  0  0  0  0
   -3.7374    5.6776    0.0000 C   0  0  0  0  0  0  0  0  0  0  0  0
   -4.7411    6.7923    0.0000 C   0  0  0  0  0  0  0  0  0  0  0  0
   -4.2776    8.2189    0.0000 C   0  0  0  0  0  0  0  0  0  0  0  0
   -5.1593    9.4324    0.0000 N   0  0  0  0  0  0  0  0  0  0  0  0
   -4.2776   10.6460    0.0000 N   0  0  0  0  0  0  0  0  0  0  0  0
   -2.8510   10.1824    0.0000 N   0  0  0  0  0  0  0  0  0  0  0  0
   -2.8510    8.6824    0.0000 N   0  0  0  0  0  0  0  0  0  0  0  0
   -1.6375    7.8008    0.0000 C   0  0  0  0  0  0  0  0  0  0  0  0
   -1.7943    6.3090    0.0000 C   0  0  0  0  0  0  0  0  0  0  0  0
   -0.5807    5.4273    0.0000 C   0  0  0  0  0  0  0  0  0  0  0  0
    0.7896    6.0374    0.0000 C   0  0  0  0  0  0  0  0  0  0  0  0
    0.9464    7.5292    0.0000 C   0  0  0  0  0  0  0  0  0  0  0  0
   -0.2671    8.4109    0.0000 C   0  0  0  0  0  0  0  0  0  0  0  0
   -0.1104    9.9026    0.0000 C   0  0  0  0  0  0  0  0  0  0  0  0
    1.2600   10.5127    0.0000 C   0  0  0  0  0  0  0  0  0  0  0  0
    1.4168   12.0045    0.0000 C   0  0  0  0  0  0  0  0  0  0  0  0
    0.2032   12.8862    0.0000 C   0  0  0  0  0  0  0  0  0  0  0  0
    0.3600   14.3780    0.0000 F   0  0  0  0  0  0  0  0  0  0  0  0
   -1.1671   12.2761    0.0000 C   0  0  0  0  0  0  0  0  0  0  0  0
   -1.3239   10.7843    0.0000 C   0  0  0  0  0  0  0  0  0  0  0  0
   -6.2083    6.4805    0.0000 C   0  0  0  0  0  0  0  0  0  0  0  0
   -6.6718    5.0539    0.0000 C   0  0  0  0  0  0  0  0  0  0  0  0
   -0.7500    1.2990    0.0000 C   0  0  0  0  0  0  0  0  0  0  0  0
    0.7500    1.2990    0.0000 C   0  0  0  0  0  0  0  0  0  0  0  0
  1  2  1  0
  2  3  1  0
  3  4  2  0
  4  5  1  0
  5  6  2  0
  6  7  1  0
  7  8  2  0
  7  9  1  0
  9 10  1  0
 10 11  2  0
 11 12  1  0
 12 13  2  0
 13 14  1  0
 14 15  1  0
 15 16  2  0
 16 17  1  0
 17 18  2  0
 18 19  1  0
 19 20  2  0
 20 21  1  0
 21 22  2  0
 22 23  1  0
 23 24  1  0
 24 25  2  0
 25 26  1  0
 26 27  2  0
 27 28  1  0
 28 29  2  0
 29 30  1  0
 30 31  2  0
 31 32  1  0
 32 33  2  0
 33 34  1  0
 33 35  1  0
 35 36  2  0
 18 37  1  0
 37 38  2  0
  6 39  1  0
 39 40  2  0
 40  3  1  0
 14 10  1  0
 38 15  1  0
 23 19  1  0
 29 24  1  0
 36 30  1  0
M  END
>  <Title>  (52) 
idAABZgen8

$$$$

     RDKit          2D

  9  9  0  0  0  0  0  0  0  0999 V2000
    3.0000    0.0000    0.0000 C   0  0  0  0  0  0  0  0  0  0  0  0
    1.5000    0.0000    0.0000 C   0  0  0  0  0  0  0  0  0  0  0  0
    0.7500   -1.2990    0.0000 C   0  0  0  0  0  0  0  0  0  0  0  0
   -0.7500   -1.2990    0.0000 C   0  0  0  0  0  0  0  0  0  0  0  0
   -1.5000    0.0000    0.0000 C   0  0  0  0  0  0  0  0  0  0  0  0
   -0.7500    1.2990    0.0000 C   0  0  0  0  0  0  0  0  0  0  0  0
    0.7500    1.2990    0.0000 C   0  0  0  0  0  0  0  0  0  0  0  0
    1.5000    2.5981    0.0000 C   0  0  0  0  0  0  0  0  0  0  0  0
    0.7500    3.8971    0.0000 O   0  0  0  0  0  0  0  0  0  0  0  0
  1  2  1  0
  2  3  2  0
  3  4  1  0
  4  5  2  0
  5  6  1  0
  6  7  2  0
  7  8  1  0
  8  9  1  0
  7  2  1  0
M  END
>  <Title>  (53) 
idAACAgen8

$$$$

     RDKit          2D

 34 38  0  0  0  0  0  0  0  0999 V2000
    3.7500    1.2990    0.0000 C   0  0  0  0  0  0  0  0  0  0  0  0
    3.0000    0.0000    0.0000 O   0  0  0  0  0  0  0  0  0  0  0  0
    1.5000    0.0000    0.0000 C   0  0  0  0  0  0  0  0  0  0  0  0
    0.7500    1.2990    0.0000 C   0  0  0  0  0  0  0  0  0  0  0  0
   -0.7500    1.2990    0.0000 C   0  0  0  0  0  0  0  0  0  0  0  0
   -1.5000    0.0000    0.0000 C   0  0  0  0  0  0  0  0  0  0  0  0
   -3.0000    0.0000    0.0000 C   0  0  0  0  0  0  0  0  0  0  0  0
   -3.8817   -1.2135    0.0000 N   0  0  0  0  0  0  0  0  0  0  0  0
   -5.3083   -0.7500    0.0000 N   0  0  0  0  0  0  0  0  0  0  0  0
   -5.3083    0.7500    0.0000 N   0  0  0  0  0  0  0  0  0  0  0  0
   -3.8817    1.2135    0.0000 N   0  0  0  0  0  0  0  0  0  0  0  0
   -3.4182    2.6401    0.0000 C   0  0  0  0  0  0  0  0  0  0  0  0
   -4.2998    3.8536    0.0000 C   0  0  0  0  0  0  0  0  0  0  0  0
   -3.4182    5.0672    0.0000 C   0  0  0  0  0  0  0  0  0  0  0  0
   -1.9916    4.6036    0.0000 C   0  0  0  0  0  0  0  0  0  0  0  0
   -0.7780    5.4853    0.0000 C   0  0  0  0  0  0  0  0  0  0  0  0
    0.5923    4.8752    0.0000 O   0  0  0  0  0  0  0  0  0  0  0  0
   -0.9348    6.9771    0.0000 N   0  0  0  0  0  0  0  0  0  0  0  0
    0.2787    7.8588    0.0000 C   0  0  0  0  0  0  0  0  0  0  0  0
    1.7053    7.3952    0.0000 N   0  0  0  0  0  0  0  0  0  0  0  0
    2.5870    8.6088    0.0000 N   0  0  0  0  0  0  0  0  0  0  0  0
    1.7053    9.8223    0.0000 N   0  0  0  0  0  0  0  0  0  0  0  0
    0.2787    9.3588    0.0000 N   0  0  0  0  0  0  0  0  0  0  0  0
   -0.9348   10.2405    0.0000 C   0  0  0  0  0  0  0  0  0  0  0  0
   -2.3052    9.6303    0.0000 C   0  0  0  0  0  0  0  0  0  0  0  0
   -3.5187   10.5120    0.0000 C   0  0  0  0  0  0  0  0  0  0  0  0
   -3.3619   12.0038    0.0000 C   0  0  0  0  0  0  0  0  0  0  0  0
   -1.9916   12.6139    0.0000 N   0  0  0  0  0  0  0  0  0  0  0  0
   -0.7780   11.7322    0.0000 C   0  0  0  0  0  0  0  0  0  0  0  0
   -1.9916    3.1036    0.0000 C   0  0  0  0  0  0  0  0  0  0  0  0
   -0.7780    2.2220    0.0000 O   0  0  0  0  0  0  0  0  0  0  0  0
   -0.7500   -1.2990    0.0000 C   0  0  0  0  0  0  0  0  0  0  0  0
   -1.5000   -2.5981    0.0000 O   0  0  0  0  0  0  0  0  0  0  0  0
    0.7500   -1.2990    0.0000 N   0  0  0  0  0  0  0  0  0  0  0  0
  1  2  1  0
  2  3  1  0
  3  4  2  0
  4  5  1  0
  5  6  2  0
  6  7  1  0
  7  8  2  0
  8  9  1  0
  9 10  2  0
 10 11  1  0
 11 12  1  0
 12 13  2  0
 13 14  1  0
 14 15  2  0
 15 16  1  0
 16 17  2  0
 16 18  1  0
 18 19  1  0
 19 20  2  0
 20 21  1  0
 21 22  2  0
 22 23  1  0
 23 24  1  0
 24 25  2  0
 25 26  1  0
 26 27  2  0
 27 28  1  0
 28 29  2  0
 15 30  1  0
 30 31  2  0
  6 32  1  0
 32 33  2  0
 32 34  1  0
 34  3  1  0
 11  7  1  0
 30 12  1  0
 23 19  1  0
 29 24  1  0
M  END
>  <Title>  (54) 
idAACBgen8

$$$$

     RDKit          2D

 41 41  0  0  0  0  0  0  0  0999 V2000
   10.5822    0.0000    0.0000 C   0  0  0  0  0  0  0  0  0  0  0  0
    9.0822    0.0000    0.0000 C   0  0  0  0  0  0  0  0  0  0  0  0
    8.9583   -1.4949    0.0000 C   0  0  0  0  0  0  0  0  0  0  0  0
    8.5901   -2.9490    0.0000 C   0  0  0  0  0  0  0  0  0  0  0  0
    7.9875   -4.3226    0.0000 C   0  0  0  0  0  0  0  0  0  0  0  0
    7.1671   -5.5784    0.0000 C   0  0  0  0  0  0  0  0  0  0  0  0
    6.1512   -6.6820    0.0000 C   0  0  0  0  0  0  0  0  0  0  0  0
    4.9675   -7.6033    0.0000 C   0  0  0  0  0  0  0  0  0  0  0  0
    3.6483   -8.3172    0.0000 C   0  0  0  0  0  0  0  0  0  0  0  0
    2.2295   -8.8043    0.0000 C   0  0  0  0  0  0  0  0  0  0  0  0
    0.7500   -9.0512    0.0000 C   0  0  0  0  0  0  0  0  0  0  0  0
   -0.7500   -9.0512    0.0000 C   0  0  0  0  0  0  0  0  0  0  0  0
   -2.2295   -8.8043    0.0000 C   0  0  0  0  0  0  0  0  0  0  0  0
   -3.6483   -8.3172    0.0000 C   0  0  0  0  0  0  0  0  0  0  0  0
   -4.9675   -7.6033    0.0000 C   0  0  0  0  0  0  0  0  0  0  0  0
   -6.1512   -6.6820    0.0000 C   0  0  0  0  0  0  0  0  0  0  0  0
   -7.1671   -5.5784    0.0000 C   0  0  0  0  0  0  0  0  0  0  0  0
   -7.9875   -4.3226    0.0000 C   0  0  0  0  0  0  0  0  0  0  0  0
   -8.5901   -2.9490    0.0000 C   0  0  0  0  0  0  0  0  0  0  0  0
   -8.9583   -1.4949    0.0000 C   0  0  0  0  0  0  0  0  0  0  0  0
   -9.0822    0.0000    0.0000 C   0  0  0  0  0  0  0  0  0  0  0  0
   -8.9583    1.4949    0.0000 C   0  0  0  0  0  0  0  0  0  0  0  0
   -8.5901    2.9490    0.0000 C   0  0  0  0  0  0  0  0  0  0  0  0
   -7.9875    4.3226    0.0000 C   0  0  0  0  0  0  0  0  0  0  0  0
   -7.1671    5.5784    0.0000 C   0  0  0  0  0  0  0  0  0  0  0  0
   -6.1512    6.6820    0.0000 C   0  0  0  0  0  0  0  0  0  0  0  0
   -4.9675    7.6033    0.0000 C   0  0  0  0  0  0  0  0  0  0  0  0
   -3.6483    8.3172    0.0000 C   0  0  0  0  0  0  0  0  0  0  0  0
   -2.2295    8.8043    0.0000 C   0  0  0  0  0  0  0  0  0  0  0  0
   -0.7500    9.0512    0.0000 C   0  0  0  0  0  0  0  0  0  0  0  0
    0.7500    9.0512    0.0000 C   0  0  0  0  0  0  0  0  0  0  0  0
    2.2295    8.8043    0.0000 C   0  0  0  0  0  0  0  0  0  0  0  0
    3.6483    8.3172    0.0000 C   0  0  0  0  0  0  0  0  0  0  0  0
    4.9675    7.6033    0.0000 C   0  0  0  0  0  0  0  0  0  0  0  0
    6.1512    6.6820    0.0000 C   0  0  0  0  0  0  0  0  0  0  0  0
    7.1671    5.5784    0.0000 C   0  0  0  0  0  0  0  0  0  0  0  0
    7.9875    4.3226    0.0000 C   0  0  0  0  0  0  0  0  0  0  0  0
    9.3067    5.0366    0.0000 C   0  0  0  0  0  0  0  0  0  0  0  0
    8.5901    2.9490    0.0000 C   0  0  0  0  0  0  0  0  0  0  0  0
   10.0088    3.4360    0.0000 O   0  0  0  0  0  0  0  0  0  0  0  0
    8.9583    1.4949    0.0000 N   0  0  0  0  0  0  0  0  0  0  0  0
  1  2  1  0
  2  3  2  0
  3  4  1  0
  4  5  2  0
  5  6  1  0
  6  7  2  0
  7  8  1  0
  8  9  2  0
  9 10  1  0
 10 11  2  0
 11 12  1  0
 12 13  2  0
 13 14  1  0
 14 15  2  0
 15 16  1  0
 16 17  2  0
 17 18  1  0
 18 19  2  0
 19 20  1  0
 20 21  2  0
 21 22  1  0
 22 23  2  0
 23 24  1  0
 24 25  2  0
 25 26  1  0
 26 27  2  0
 27 28  1  0
 28 29  2  0
 29 30  1  0
 30 31  2  0
 31 32  1  0
 32 33  2  0
 33 34  1  0
 34 35  2  0
 35 36  1  0
 36 37  2  0
 37 38  1  0
 37 39  1  0
 39 40  2  0
 39 41  1  0
 41  2  1  0
M  END
>  <Title>  (55) 
idAACCgen8

$$$$

     RDKit          2D

  9  9  0  0  0  0  0  0  0  0999 V2000
    3.4598   -0.0000    0.0000 C   0  0  0  0  0  0  0  0  0  0  0  0
    1.9598    0.0000    0.0000 C   0  0  0  0  0  0  0  0  0  0  0  0
    1.3858   -1.3858    0.0000 C   0  0  0  0  0  0  0  0  0  0  0  0
   -0.0000   -1.9598    0.0000 C   0  0  0  0  0  0  0  0  0  0  0  0
   -1.3858   -1.3858    0.0000 C   0  0  0  0  0  0  0  0  0  0  0  0
   -1.9598    0.0000    0.0000 C   0  0  0  0  0  0  0  0  0  0  0  0
   -1.3858    1.3858    0.0000 C   0  0  0  0  0  0  0  0  0  0  0  0
    0.0000    1.9598    0.0000 C   0  0  0  0  0  0  0  0  0  0  0  0
    1.3858    1.3858    0.0000 C   0  0  0  0  0  0  0  0  0  0  0  0
  1  2  1  0
  2  3  2  0
  3  4  1  0
  4  5  2  0
  5  6  2  0
  6  7  2  0
  7  8  1  0
  8  9  2  0
  9  2  1  0
M  END
>  <Title>  (56) 
idAACDgen8

$$$$

     RDKit          2D

  7  7  0  0  0  0  0  0  0  0999 V2000
    3.0000    0.0000    0.0000 O   0  0  0  0  0  0  0  0  0  0  0  0
    1.5000    0.0000    0.0000 C   0  0  0  0  0  0  0  0  0  0  0  0
    0.7500   -1.2990    0.0000 C   0  0  0  0  0  0  0  0  0  0  0  0
   -0.7500   -1.2990    0.0000 C   0  0  0  0  0  0  0  0  0  0  0  0
   -1.5000    0.0000    0.0000 C   0  0  0  0  0  0  0  0  0  0  0  0
   -0.7500    1.2990    0.0000 C   0  0  0  0  0  0  0  0  0  0  0  0
    0.7500    1.2990    0.0000 C   0  0  0  0  0  0  0  0  0  0  0  0
  1  2  1  0
  2  3  2  0
  3  4  1  0
  4  5  2  0
  5  6  1  0
  6  7  2  0
  7  2  1  0
M  END
>  <Title>  (57) 
idAACEgen8

$$$$

     RDKit          2D

 19 19  0  0  0  0  0  0  0  0999 V2000
    5.8191    0.0000    0.0000 C   0  0  0  0  0  0  0  0  0  0  0  0
    4.3191    0.0000    0.0000 C   0  0  0  0  0  0  0  0  0  0  0  0
    4.0586   -1.4772    0.0000 C   0  0  0  0  0  0  0  0  0  0  0  0
    3.3086   -2.7762    0.0000 C   0  0  0  0  0  0  0  0  0  0  0  0
    2.1595   -3.7404    0.0000 C   0  0  0  0  0  0  0  0  0  0  0  0
    0.7500   -4.2535    0.0000 C   0  0  0  0  0  0  0  0  0  0  0  0
   -0.7500   -4.2535    0.0000 C   0  0  0  0  0  0  0  0  0  0  0  0
   -2.1595   -3.7404    0.0000 C   0  0  0  0  0  0  0  0  0  0  0  0
   -3.3086   -2.7762    0.0000 C   0  0  0  0  0  0  0  0  0  0  0  0
   -4.0586   -1.4772    0.0000 C   0  0  0  0  0  0  0  0  0  0  0  0
   -4.3191    0.0000    0.0000 C   0  0  0  0  0  0  0  0  0  0  0  0
   -4.0586    1.4772    0.0000 C   0  0  0  0  0  0  0  0  0  0  0  0
   -3.3086    2.7762    0.0000 C   0  0  0  0  0  0  0  0  0  0  0  0
   -2.1595    3.7404    0.0000 C   0  0  0  0  0  0  0  0  0  0  0  0
   -0.7500    4.2535    0.0000 C   0  0  0  0  0  0  0  0  0  0  0  0
    0.7500    4.2535    0.0000 C   0  0  0  0  0  0  0  0  0  0  0  0
    2.1595    3.7404    0.0000 C   0  0  0  0  0  0  0  0  0  0  0  0
    3.3086    2.7762    0.0000 C   0  0  0  0  0  0  0  0  0  0  0  0
    4.0586    1.4772    0.0000 C   0  0  0  0  0  0  0  0  0  0  0  0
  1  2  1  0
  2  3  2  0
  3  4  1  0
  4  5  2  0
  5  6  1  0
  6  7  2  0
  7  8  1  0
  8  9  2  0
  9 10  1  0
 10 11  2  0
 11 12  1  0
 12 13  2  0
 13 14  1  0
 14 15  1  0
 15 16  1  0
 16 17  1  0
 17 18  1  0
 18 19  1  0
 19  2  1  0
M  END
>  <Title>  (58) 
idAACFgen8

$$$$

     RDKit          2D

 35 40  0  0  0  0  0  0  0  0999 V2000
    3.0000    0.0000    0.0000 C   0  0  0  0  0  0  0  0  0  0  0  0
    1.5000    0.0000    0.0000 C   0  0  0  0  0  0  0  0  0  0  0  0
    0.7500   -1.2990    0.0000 C   0  0  0  0  0  0  0  0  0  0  0  0
   -0.7500   -1.2990    0.0000 C   0  0  0  0  0  0  0  0  0  0  0  0
   -1.5000    0.0000    0.0000 C   0  0  0  0  0  0  0  0  0  0  0  0
   -3.0000    0.0000    0.0000 C   0  0  0  0  0  0  0  0  0  0  0  0
   -3.8817   -1.2135    0.0000 N   0  0  0  0  0  0  0  0  0  0  0  0
   -5.3083   -0.7500    0.0000 N   0  0  0  0  0  0  0  0  0  0  0  0
   -5.3083    0.7500    0.0000 N   0  0  0  0  0  0  0  0  0  0  0  0
   -3.8817    1.2135    0.0000 N   0  0  0  0  0  0  0  0  0  0  0  0
   -3.4182    2.6401    0.0000 C   0  0  0  0  0  0  0  0  0  0  0  0
   -1.9509    2.9520    0.0000 C   0  0  0  0  0  0  0  0  0  0  0  0
   -1.4874    4.3786    0.0000 C   0  0  0  0  0  0  0  0  0  0  0  0
   -2.4911    5.4933    0.0000 C   0  0  0  0  0  0  0  0  0  0  0  0
   -2.0276    6.9199    0.0000 C   0  0  0  0  0  0  0  0  0  0  0  0
   -2.9093    8.1334    0.0000 N   0  0  0  0  0  0  0  0  0  0  0  0
   -2.0276    9.3469    0.0000 N   0  0  0  0  0  0  0  0  0  0  0  0
   -0.6010    8.8834    0.0000 N   0  0  0  0  0  0  0  0  0  0  0  0
   -0.6010    7.3834    0.0000 N   0  0  0  0  0  0  0  0  0  0  0  0
    0.6125    6.5017    0.0000 C   0  0  0  0  0  0  0  0  0  0  0  0
    0.4557    5.0099    0.0000 C   0  0  0  0  0  0  0  0  0  0  0  0
    1.6693    4.1283    0.0000 C   0  0  0  0  0  0  0  0  0  0  0  0
    3.0396    4.7384    0.0000 N   0  0  0  0  0  0  0  0  0  0  0  0
    3.1964    6.2301    0.0000 N   0  0  0  0  0  0  0  0  0  0  0  0
    1.9829    7.1118    0.0000 C   0  0  0  0  0  0  0  0  0  0  0  0
    2.1396    8.6036    0.0000 C   0  0  0  0  0  0  0  0  0  0  0  0
    3.5100    9.2137    0.0000 C   0  0  0  0  0  0  0  0  0  0  0  0
    3.6668   10.7055    0.0000 C   0  0  0  0  0  0  0  0  0  0  0  0
    2.4532   11.5872    0.0000 C   0  0  0  0  0  0  0  0  0  0  0  0
    1.0829   10.9771    0.0000 C   0  0  0  0  0  0  0  0  0  0  0  0
    0.9261    9.4853    0.0000 C   0  0  0  0  0  0  0  0  0  0  0  0
   -3.9583    5.1814    0.0000 C   0  0  0  0  0  0  0  0  0  0  0  0
   -4.4218    3.7548    0.0000 C   0  0  0  0  0  0  0  0  0  0  0  0
   -0.7500    1.2990    0.0000 C   0  0  0  0  0  0  0  0  0  0  0  0
    0.7500    1.2990    0.0000 C   0  0  0  0  0  0  0  0  0  0  0  0
  1  2  1  0
  2  3  2  0
  3  4  1  0
  4  5  2  0
  5  6  1  0
  6  7  2  0
  7  8  1  0
  8  9  2  0
  9 10  1  0
 10 11  1  0
 11 12  2  0
 12 13  1  0
 13 14  2  0
 14 15  1  0
 15 16  2  0
 16 17  1  0
 17 18  2  0
 18 19  1  0
 19 20  1  0
 20 21  2  0
 21 22  1  0
 22 23  2  0
 23 24  1  0
 24 25  2  0
 25 26  1  0
 26 27  2  0
 27 28  1  0
 28 29  2  0
 29 30  1  0
 30 31  2  0
 14 32  1  0
 32 33  2  0
  5 34  1  0
 34 35  2  0
 35  2  1  0
 10  6  1  0
 33 11  1  0
 19 15  1  0
 25 20  1  0
 31 26  1  0
M  END
>  <Title>  (59) 
idAACGgen8

$$$$

     RDKit          2D

 30 33  0  0  0  0  0  0  0  0999 V2000
    1.6699   -5.8060    0.0000 C   0  0  0  0  0  0  0  0  0  0  0  0
    0.1808   -5.9868    0.0000 C   0  0  0  0  0  0  0  0  0  0  0  0
   -0.3511   -4.5843    0.0000 C   0  0  0  0  0  0  0  0  0  0  0  0
   -1.4739   -3.5896    0.0000 C   0  0  0  0  0  0  0  0  0  0  0  0
   -2.9303   -3.2306    0.0000 C   0  0  0  0  0  0  0  0  0  0  0  0
   -3.1111   -4.7197    0.0000 C   0  0  0  0  0  0  0  0  0  0  0  0
   -2.5792   -6.1222    0.0000 C   0  0  0  0  0  0  0  0  0  0  0  0
   -1.4564   -7.1169    0.0000 C   0  0  0  0  0  0  0  0  0  0  0  0
    0.0000   -7.4758    0.0000 C   0  0  0  0  0  0  0  0  0  0  0  0
    1.4564   -7.1169    0.0000 C   0  0  0  0  0  0  0  0  0  0  0  0
    2.1535   -8.4451    0.0000 O   0  0  0  0  0  0  0  0  0  0  0  0
    2.5792   -6.1222    0.0000 N   0  0  0  0  0  0  0  0  0  0  0  0
    3.1111   -4.7197    0.0000 C   0  0  0  0  0  0  0  0  0  0  0  0
    4.5917   -4.9603    0.0000 C   0  0  0  0  0  0  0  0  0  0  0  0
    5.8805   -4.1929    0.0000 C   0  0  0  0  0  0  0  0  0  0  0  0
    6.3746   -2.7766    0.0000 C   0  0  0  0  0  0  0  0  0  0  0  0
    5.8427   -1.3741    0.0000 C   0  0  0  0  0  0  0  0  0  0  0  0
    4.5337   -0.6416    0.0000 C   0  0  0  0  0  0  0  0  0  0  0  0
    3.0601   -0.9219    0.0000 C   0  0  0  0  0  0  0  0  0  0  0  0
    2.0782   -1.9961    0.0000 C   0  0  0  0  0  0  0  0  0  0  0  0
    2.9303   -3.2306    0.0000 C   0  0  0  0  0  0  0  0  0  0  0  0
    4.3328   -2.6987    0.0000 O   0  0  0  0  0  0  0  0  0  0  0  0
    0.7500   -1.2990    0.0000 C   0  0  0  0  0  0  0  0  0  0  0  0
    1.5000    0.0000    0.0000 C   0  0  0  0  0  0  0  0  0  0  0  0
    0.7500    1.2990    0.0000 C   0  0  0  0  0  0  0  0  0  0  0  0
   -0.7500    1.2990    0.0000 C   0  0  0  0  0  0  0  0  0  0  0  0
   -1.5000    0.0000    0.0000 C   0  0  0  0  0  0  0  0  0  0  0  0
   -0.7500   -1.2990    0.0000 C   0  0  0  0  0  0  0  0  0  0  0  0
   -2.0782   -1.9961    0.0000 C   0  0  0  0  0  0  0  0  0  0  0  0
   -3.0729   -0.8734    0.0000 O   0  0  0  0  0  0  0  0  0  0  0  0
  1  2  1  0
  2  3  2  0
  3  4  1  0
  4  5  2  0
  5  6  1  0
  6  7  2  0
  7  8  1  0
  8  9  2  0
  9 10  1  0
 10 11  2  0
 10 12  1  0
 12 13  1  0
 13 14  2  0
 14 15  1  0
 15 16  2  0
 16 17  1  0
 17 18  2  0
 18 19  1  0
 19 20  2  0
 20 21  1  0
 21 22  2  0
 20 23  1  0
 23 24  2  0
 24 25  1  0
 25 26  2  0
 26 27  1  0
 27 28  2  0
 28 29  1  0
 29 30  2  0
  9  2  1  0
 21 13  1  0
 28 23  1  0
 29  5  1  0
M  END
>  <Title>  (60) 
idAACHgen8

$$$$

     RDKit          2D

 14 14  0  0  0  0  0  0  0  0999 V2000
    4.3978    0.0000    0.0000 C   0  0  0  0  0  0  0  0  0  0  0  0
    2.8978    0.0000    0.0000 C   0  0  0  0  0  0  0  0  0  0  0  0
    2.5095   -1.4489    0.0000 C   0  0  0  0  0  0  0  0  0  0  0  0
    1.4489   -2.5095    0.0000 C   0  0  0  0  0  0  0  0  0  0  0  0
   -0.0000   -2.8978    0.0000 C   0  0  0  0  0  0  0  0  0  0  0  0
   -1.4489   -2.5095    0.0000 C   0  0  0  0  0  0  0  0  0  0  0  0
   -2.5095   -1.4489    0.0000 C   0  0  0  0  0  0  0  0  0  0  0  0
   -2.8978    0.0000    0.0000 C   0  0  0  0  0  0  0  0  0  0  0  0
   -2.5095    1.4489    0.0000 C   0  0  0  0  0  0  0  0  0  0  0  0
   -1.4489    2.5095    0.0000 C   0  0  0  0  0  0  0  0  0  0  0  0
    0.0000    2.8978    0.0000 C   0  0  0  0  0  0  0  0  0  0  0  0
    1.4489    2.5095    0.0000 C   0  0  0  0  0  0  0  0  0  0  0  0
    2.5095    1.4489    0.0000 C   0  0  0  0  0  0  0  0  0  0  0  0
    3.8086    2.1989    0.0000 O   0  0  0  0  0  0  0  0  0  0  0  0
  1  2  1  0
  2  3  2  0
  3  4  1  0
  4  5  2  0
  5  6  1  0
  6  7  2  0
  7  8  1  0
  8  9  2  0
  9 10  1  0
 10 11  2  0
 11 12  1  0
 12 13  2  0
 13 14  1  0
 13  2  1  0
M  END
>  <Title>  (61) 
idAACIgen8

$$$$

     RDKit          2D

 18 19  0  0  0  0  0  0  0  0999 V2000
    5.9883    3.7316    0.0000 C   0  0  0  0  0  0  0  0  0  0  0  0
    4.9907    4.8518    0.0000 O   0  0  0  0  0  0  0  0  0  0  0  0
    3.5218    4.5479    0.0000 C   0  0  0  0  0  0  0  0  0  0  0  0
    3.3996    3.0529    0.0000 C   0  0  0  0  0  0  0  0  0  0  0  0
    2.4884    1.8613    0.0000 C   0  0  0  0  0  0  0  0  0  0  0  0
    1.0777    1.3515    0.0000 C   0  0  0  0  0  0  0  0  0  0  0  0
    1.7286    0.0000    0.0000 C   0  0  0  0  0  0  0  0  0  0  0  0
    1.0777   -1.3515    0.0000 C   0  0  0  0  0  0  0  0  0  0  0  0
   -0.3846   -1.6852    0.0000 C   0  0  0  0  0  0  0  0  0  0  0  0
   -1.5574   -0.7500    0.0000 C   0  0  0  0  0  0  0  0  0  0  0  0
   -1.5574    0.7500    0.0000 C   0  0  0  0  0  0  0  0  0  0  0  0
   -0.3846    1.6852    0.0000 C   0  0  0  0  0  0  0  0  0  0  0  0
   -1.4344    2.7567    0.0000 O   0  0  0  0  0  0  0  0  0  0  0  0
   -1.7383    4.2256    0.0000 C   0  0  0  0  0  0  0  0  0  0  0  0
   -1.1998    5.6256    0.0000 C   0  0  0  0  0  0  0  0  0  0  0  0
    0.0101    6.5122    0.0000 C   0  0  0  0  0  0  0  0  0  0  0  0
    1.5073    6.6039    0.0000 C   0  0  0  0  0  0  0  0  0  0  0  0
    2.8164    5.8717    0.0000 C   0  0  0  0  0  0  0  0  0  0  0  0
  1  2  1  0
  2  3  1  0
  3  4  2  0
  4  5  1  0
  5  6  2  0
  6  7  1  0
  7  8  2  0
  8  9  1  0
  9 10  2  0
 10 11  1  0
 11 12  2  0
 12 13  1  0
 13 14  1  0
 14 15  1  0
 15 16  2  0
 16 17  1  0
 17 18  2  0
 18  3  1  0
 12  6  1  0
M  END
>  <Title>  (62) 
idAACJgen8

$$$$

     RDKit          2D

 41 47  0  0  0  0  0  0  0  0999 V2000
    3.0000    0.0000    0.0000 C   0  0  0  0  0  0  0  0  0  0  0  0
    1.5000    0.0000    0.0000 C   0  0  0  0  0  0  0  0  0  0  0  0
    0.7500   -1.2990    0.0000 C   0  0  0  0  0  0  0  0  0  0  0  0
   -0.7500   -1.2990    0.0000 C   0  0  0  0  0  0  0  0  0  0  0  0
   -1.5000    0.0000    0.0000 C   0  0  0  0  0  0  0  0  0  0  0  0
   -3.0000    0.0000    0.0000 C   0  0  0  0  0  0  0  0  0  0  0  0
   -3.8817   -1.2135    0.0000 N   0  0  0  0  0  0  0  0  0  0  0  0
   -5.3083   -0.7500    0.0000 N   0  0  0  0  0  0  0  0  0  0  0  0
   -5.3083    0.7500    0.0000 N   0  0  0  0  0  0  0  0  0  0  0  0
   -3.8817    1.2135    0.0000 N   0  0  0  0  0  0  0  0  0  0  0  0
   -3.4182    2.6401    0.0000 C   0  0  0  0  0  0  0  0  0  0  0  0
   -1.9509    2.9520    0.0000 C   0  0  0  0  0  0  0  0  0  0  0  0
   -1.4874    4.3786    0.0000 C   0  0  0  0  0  0  0  0  0  0  0  0
   -2.4911    5.4933    0.0000 C   0  0  0  0  0  0  0  0  0  0  0  0
   -3.9583    5.1814    0.0000 C   0  0  0  0  0  0  0  0  0  0  0  0
   -4.4218    3.7548    0.0000 C   0  0  0  0  0  0  0  0  0  0  0  0
   -5.8891    3.4430    0.0000 C   0  0  0  0  0  0  0  0  0  0  0  0
   -6.4992    2.0726    0.0000 N   0  0  0  0  0  0  0  0  0  0  0  0
   -7.9910    2.2294    0.0000 N   0  0  0  0  0  0  0  0  0  0  0  0
   -8.3028    3.6967    0.0000 N   0  0  0  0  0  0  0  0  0  0  0  0
   -7.0038    4.4467    0.0000 N   0  0  0  0  0  0  0  0  0  0  0  0
   -6.8470    5.9384    0.0000 C   0  0  0  0  0  0  0  0  0  0  0  0
   -7.9617    6.9421    0.0000 C   0  0  0  0  0  0  0  0  0  0  0  0
   -7.3516    8.3125    0.0000 C   0  0  0  0  0  0  0  0  0  0  0  0
   -5.8598    8.1557    0.0000 C   0  0  0  0  0  0  0  0  0  0  0  0
   -4.8561    9.2704    0.0000 C   0  0  0  0  0  0  0  0  0  0  0  0
   -3.3643    9.1136    0.0000 N   0  0  0  0  0  0  0  0  0  0  0  0
   -2.7542   10.4839    0.0000 N   0  0  0  0  0  0  0  0  0  0  0  0
   -3.8690   11.4876    0.0000 N   0  0  0  0  0  0  0  0  0  0  0  0
   -5.1680   10.7376    0.0000 N   0  0  0  0  0  0  0  0  0  0  0  0
   -6.5383   11.3477    0.0000 C   0  0  0  0  0  0  0  0  0  0  0  0
   -6.6951   12.8395    0.0000 C   0  0  0  0  0  0  0  0  0  0  0  0
   -8.0654   13.4496    0.0000 C   0  0  0  0  0  0  0  0  0  0  0  0
   -9.2789   12.5679    0.0000 C   0  0  0  0  0  0  0  0  0  0  0  0
   -9.1222   11.0761    0.0000 C   0  0  0  0  0  0  0  0  0  0  0  0
   -7.7518   10.4660    0.0000 C   0  0  0  0  0  0  0  0  0  0  0  0
   -5.5480    6.6884    0.0000 C   0  0  0  0  0  0  0  0  0  0  0  0
   -4.1776    6.0783    0.0000 O   0  0  0  0  0  0  0  0  0  0  0  0
   -0.7500    1.2990    0.0000 N   0  0  0  0  0  0  0  0  0  0  0  0
    0.7500    1.2990    0.0000 C   0  0  0  0  0  0  0  0  0  0  0  0
    1.5000    2.5981    0.0000 O   0  0  0  0  0  0  0  0  0  0  0  0
  1  2  1  0
  2  3  2  0
  3  4  1  0
  4  5  2  0
  5  6  1  0
  6  7  2  0
  7  8  1  0
  8  9  2  0
  9 10  1  0
 10 11  1  0
 11 12  2  0
 12 13  1  0
 13 14  1  0
 14 15  1  0
 15 16  1  0
 16 17  1  0
 17 18  2  0
 18 19  1  0
 19 20  2  0
 20 21  1  0
 21 22  1  0
 22 23  2  0
 23 24  1  0
 24 25  2  0
 25 26  1  0
 26 27  2  0
 27 28  1  0
 28 29  2  0
 29 30  1  0
 30 31  1  0
 31 32  2  0
 32 33  1  0
 33 34  2  0
 34 35  1  0
 35 36  2  0
 25 37  1  0
 37 38  2  0
  5 39  1  0
 39 40  1  0
 40 41  2  0
 40  2  1  0
 10  6  1  0
 16 11  1  0
 21 17  1  0
 37 22  1  0
 30 26  1  0
 36 31  1  0
M  END
>  <Title>  (63) 
idAACKgen8

$$$$

     RDKit          2D

 27 27  0  0  0  0  0  0  0  0999 V2000
    7.9960   -1.2990    0.0000 C   0  0  0  0  0  0  0  0  0  0  0  0
    7.2460    0.0000    0.0000 O   0  0  0  0  0  0  0  0  0  0  0  0
    5.7460    0.0000    0.0000 C   0  0  0  0  0  0  0  0  0  0  0  0
    5.5502   -1.4872    0.0000 C   0  0  0  0  0  0  0  0  0  0  0  0
    4.9762   -2.8730    0.0000 C   0  0  0  0  0  0  0  0  0  0  0  0
    4.0630   -4.0630    0.0000 C   0  0  0  0  0  0  0  0  0  0  0  0
    2.8730   -4.9762    0.0000 C   0  0  0  0  0  0  0  0  0  0  0  0
    1.4872   -5.5502    0.0000 C   0  0  0  0  0  0  0  0  0  0  0  0
   -0.0000   -5.7460    0.0000 C   0  0  0  0  0  0  0  0  0  0  0  0
   -1.4872   -5.5502    0.0000 C   0  0  0  0  0  0  0  0  0  0  0  0
   -2.8730   -4.9762    0.0000 C   0  0  0  0  0  0  0  0  0  0  0  0
   -4.0630   -4.0630    0.0000 C   0  0  0  0  0  0  0  0  0  0  0  0
   -4.9762   -2.8730    0.0000 C   0  0  0  0  0  0  0  0  0  0  0  0
   -5.5502   -1.4872    0.0000 C   0  0  0  0  0  0  0  0  0  0  0  0
   -5.7460    0.0000    0.0000 C   0  0  0  0  0  0  0  0  0  0  0  0
   -5.5502    1.4872    0.0000 C   0  0  0  0  0  0  0  0  0  0  0  0
   -4.9762    2.8730    0.0000 C   0  0  0  0  0  0  0  0  0  0  0  0
   -4.0630    4.0630    0.0000 C   0  0  0  0  0  0  0  0  0  0  0  0
   -2.8730    4.9762    0.0000 C   0  0  0  0  0  0  0  0  0  0  0  0
   -1.4872    5.5502    0.0000 C   0  0  0  0  0  0  0  0  0  0  0  0
    0.0000    5.7460    0.0000 C   0  0  0  0  0  0  0  0  0  0  0  0
    1.4872    5.5502    0.0000 C   0  0  0  0  0  0  0  0  0  0  0  0
    2.8730    4.9762    0.0000 C   0  0  0  0  0  0  0  0  0  0  0  0
    4.0630    4.0630    0.0000 C   0  0  0  0  0  0  0  0  0  0  0  0
    4.9762    2.8730    0.0000 C   0  0  0  0  0  0  0  0  0  0  0  0
    5.5502    1.4872    0.0000 C   0  0  0  0  0  0  0  0  0  0  0  0
    6.9991    1.8754    0.0000 C   0  0  0  0  0  0  0  0  0  0  0  0
  1  2  1  0
  2  3  1  0
  3  4  2  0
  4  5  1  0
  5  6  2  0
  6  7  1  0
  7  8  2  0
  8  9  1  0
  9 10  2  0
 10 11  1  0
 11 12  2  0
 12 13  1  0
 13 14  2  0
 14 15  1  0
 15 16  2  0
 16 17  1  0
 17 18  2  0
 18 19  1  0
 19 20  2  0
 20 21  1  0
 21 22  2  0
 22 23  1  0
 23 24  2  0
 24 25  1  0
 25 26  2  0
 26 27  1  0
 26  3  1  0
M  END
>  <Title>  (64) 
idAACLgen8

$$$$

     RDKit          2D

 31 35  0  0  0  0  0  0  0  0999 V2000
    3.7500   -1.2990    0.0000 C   0  0  0  0  0  0  0  0  0  0  0  0
    3.0000    0.0000    0.0000 O   0  0  0  0  0  0  0  0  0  0  0  0
    1.5000    0.0000    0.0000 C   0  0  0  0  0  0  0  0  0  0  0  0
    0.7500   -1.2990    0.0000 C   0  0  0  0  0  0  0  0  0  0  0  0
   -0.7500   -1.2990    0.0000 C   0  0  0  0  0  0  0  0  0  0  0  0
   -1.5000    0.0000    0.0000 C   0  0  0  0  0  0  0  0  0  0  0  0
   -3.0000    0.0000    0.0000 C   0  0  0  0  0  0  0  0  0  0  0  0
   -3.8817   -1.2135    0.0000 N   0  0  0  0  0  0  0  0  0  0  0  0
   -5.3083   -0.7500    0.0000 N   0  0  0  0  0  0  0  0  0  0  0  0
   -5.3083    0.7500    0.0000 N   0  0  0  0  0  0  0  0  0  0  0  0
   -3.8817    1.2135    0.0000 N   0  0  0  0  0  0  0  0  0  0  0  0
   -3.4182    2.6401    0.0000 C   0  0  0  0  0  0  0  0  0  0  0  0
   -1.9509    2.9520    0.0000 C   0  0  0  0  0  0  0  0  0  0  0  0
   -1.4874    4.3786    0.0000 C   0  0  0  0  0  0  0  0  0  0  0  0
   -2.4911    5.4933    0.0000 C   0  0  0  0  0  0  0  0  0  0  0  0
   -2.0276    6.9199    0.0000 C   0  0  0  0  0  0  0  0  0  0  0  0
   -0.5604    7.2317    0.0000 C   0  0  0  0  0  0  0  0  0  0  0  0
   -0.0968    8.6583    0.0000 C   0  0  0  0  0  0  0  0  0  0  0  0
   -1.1005    9.7730    0.0000 C   0  0  0  0  0  0  0  0  0  0  0  0
   -2.5677    9.4612    0.0000 C   0  0  0  0  0  0  0  0  0  0  0  0
   -3.0313    8.0346    0.0000 C   0  0  0  0  0  0  0  0  0  0  0  0
   -4.4985    7.7227    0.0000 C   0  0  0  0  0  0  0  0  0  0  0  0
   -5.5022    8.8374    0.0000 C   0  0  0  0  0  0  0  0  0  0  0  0
   -6.9694    8.5256    0.0000 C   0  0  0  0  0  0  0  0  0  0  0  0
   -7.4329    7.0990    0.0000 C   0  0  0  0  0  0  0  0  0  0  0  0
   -6.4292    5.9843    0.0000 C   0  0  0  0  0  0  0  0  0  0  0  0
   -4.9620    6.2961    0.0000 C   0  0  0  0  0  0  0  0  0  0  0  0
   -3.9583    5.1814    0.0000 C   0  0  0  0  0  0  0  0  0  0  0  0
   -4.4218    3.7548    0.0000 C   0  0  0  0  0  0  0  0  0  0  0  0
   -0.7500    1.2990    0.0000 C   0  0  0  0  0  0  0  0  0  0  0  0
    0.7500    1.2990    0.0000 N   0  0  0  0  0  0  0  0  0  0  0  0
  1  2  1  0
  2  3  1  0
  3  4  2  0
  4  5  1  0
  5  6  2  0
  6  7  1  0
  7  8  2  0
  8  9  1  0
  9 10  2  0
 10 11  1  0
 11 12  1  0
 12 13  2  0
 13 14  1  0
 14 15  2  0
 15 16  1  0
 16 17  2  0
 17 18  1  0
 18 19  2  0
 19 20  1  0
 20 21  2  0
 21 22  1  0
 22 23  2  0
 23 24  1  0
 24 25  2  0
 25 26  1  0
 26 27  2  0
 15 28  1  0
 28 29  2  0
  6 30  1  0
 30 31  2  0
 31  3  1  0
 11  7  1  0
 29 12  1  0
 21 16  1  0
 27 22  1  0
M  END
>  <Title>  (65) 
idAACMgen8

$$$$

     RDKit          2D

 29 33  0  0  0  0  0  0  0  0999 V2000
    3.0000    0.0000    0.0000 C   0  0  0  0  0  0  0  0  0  0  0  0
    1.5000    0.0000    0.0000 C   0  0  0  0  0  0  0  0  0  0  0  0
    0.7500   -1.2990    0.0000 C   0  0  0  0  0  0  0  0  0  0  0  0
   -0.7500   -1.2990    0.0000 C   0  0  0  0  0  0  0  0  0  0  0  0
   -1.5000    0.0000    0.0000 C   0  0  0  0  0  0  0  0  0  0  0  0
   -3.0000    0.0000    0.0000 C   0  0  0  0  0  0  0  0  0  0  0  0
   -3.8817   -1.2135    0.0000 N   0  0  0  0  0  0  0  0  0  0  0  0
   -5.3083   -0.7500    0.0000 N   0  0  0  0  0  0  0  0  0  0  0  0
   -5.3083    0.7500    0.0000 N   0  0  0  0  0  0  0  0  0  0  0  0
   -3.8817    1.2135    0.0000 N   0  0  0  0  0  0  0  0  0  0  0  0
   -3.4182    2.6401    0.0000 C   0  0  0  0  0  0  0  0  0  0  0  0
   -1.9509    2.9520    0.0000 C   0  0  0  0  0  0  0  0  0  0  0  0
   -1.4874    4.3786    0.0000 C   0  0  0  0  0  0  0  0  0  0  0  0
   -2.4911    5.4933    0.0000 C   0  0  0  0  0  0  0  0  0  0  0  0
   -2.0276    6.9199    0.0000 C   0  0  0  0  0  0  0  0  0  0  0  0
   -2.9093    8.1334    0.0000 N   0  0  0  0  0  0  0  0  0  0  0  0
   -2.0276    9.3469    0.0000 N   0  0  0  0  0  0  0  0  0  0  0  0
   -0.6010    8.8834    0.0000 N   0  0  0  0  0  0  0  0  0  0  0  0
   -0.6010    7.3834    0.0000 N   0  0  0  0  0  0  0  0  0  0  0  0
    0.6125    6.5017    0.0000 C   0  0  0  0  0  0  0  0  0  0  0  0
    0.4557    5.0099    0.0000 C   0  0  0  0  0  0  0  0  0  0  0  0
    1.6693    4.1283    0.0000 C   0  0  0  0  0  0  0  0  0  0  0  0
    3.0396    4.7384    0.0000 C   0  0  0  0  0  0  0  0  0  0  0  0
    3.1964    6.2301    0.0000 C   0  0  0  0  0  0  0  0  0  0  0  0
    1.9829    7.1118    0.0000 C   0  0  0  0  0  0  0  0  0  0  0  0
   -3.9583    5.1814    0.0000 C   0  0  0  0  0  0  0  0  0  0  0  0
   -4.4218    3.7548    0.0000 C   0  0  0  0  0  0  0  0  0  0  0  0
   -0.7500    1.2990    0.0000 C   0  0  0  0  0  0  0  0  0  0  0  0
    0.7500    1.2990    0.0000 C   0  0  0  0  0  0  0  0  0  0  0  0
  1  2  1  0
  2  3  2  0
  3  4  1  0
  4  5  2  0
  5  6  1  0
  6  7  2  0
  7  8  1  0
  8  9  2  0
  9 10  1  0
 10 11  1  0
 11 12  2  0
 12 13  1  0
 13 14  2  0
 14 15  1  0
 15 16  2  0
 16 17  1  0
 17 18  2  0
 18 19  1  0
 19 20  1  0
 20 21  2  0
 21 22  1  0
 22 23  2  0
 23 24  1  0
 24 25  2  0
 14 26  1  0
 26 27  2  0
  5 28  1  0
 28 29  1  0
 29  2  1  0
 10  6  1  0
 27 11  1  0
 19 15  1  0
 25 20  1  0
M  END
>  <Title>  (66) 
idAACNgen8

$$$$

     RDKit          2D

 13 13  0  0  0  0  0  0  0  0999 V2000
    4.9121   -1.2990    0.0000 C   0  0  0  0  0  0  0  0  0  0  0  0
    4.1621    0.0000    0.0000 C   0  0  0  0  0  0  0  0  0  0  0  0
    2.6621    0.0000    0.0000 C   0  0  0  0  0  0  0  0  0  0  0  0
    2.2395    1.4392    0.0000 C   0  0  0  0  0  0  0  0  0  0  0  0
    1.1059    2.4215    0.0000 C   0  0  0  0  0  0  0  0  0  0  0  0
   -0.3789    2.6350    0.0000 C   0  0  0  0  0  0  0  0  0  0  0  0
   -1.7433    2.0119    0.0000 C   0  0  0  0  0  0  0  0  0  0  0  0
   -2.5543    0.7500    0.0000 C   0  0  0  0  0  0  0  0  0  0  0  0
   -2.5543   -0.7500    0.0000 C   0  0  0  0  0  0  0  0  0  0  0  0
   -1.7433   -2.0119    0.0000 C   0  0  0  0  0  0  0  0  0  0  0  0
   -0.3789   -2.6350    0.0000 C   0  0  0  0  0  0  0  0  0  0  0  0
    1.1059   -2.4215    0.0000 C   0  0  0  0  0  0  0  0  0  0  0  0
    2.2395   -1.4392    0.0000 C   0  0  0  0  0  0  0  0  0  0  0  0
  1  2  1  0
  2  3  1  0
  3  4  1  0
  4  5  1  0
  5  6  1  0
  6  7  1  0
  7  8  1  0
  8  9  1  0
  9 10  1  0
 10 11  1  0
 11 12  1  0
 12 13  1  0
 13  3  1  0
M  END
>  <Title>  (67) 
idAACOgen8

$$$$

     RDKit          2D

 15 15  0  0  0  0  0  0  0  0999 V2000
    5.1478    1.2990    0.0000 O   0  0  0  0  0  0  0  0  0  0  0  0
    4.3978    0.0000    0.0000 C   0  0  0  0  0  0  0  0  0  0  0  0
    5.1478   -1.2990    0.0000 O   0  0  0  0  0  0  0  0  0  0  0  0
    2.8978    0.0000    0.0000 C   0  0  0  0  0  0  0  0  0  0  0  0
    2.5095   -1.4489    0.0000 C   0  0  0  0  0  0  0  0  0  0  0  0
    1.4489   -2.5095    0.0000 C   0  0  0  0  0  0  0  0  0  0  0  0
   -0.0000   -2.8978    0.0000 C   0  0  0  0  0  0  0  0  0  0  0  0
   -1.4489   -2.5095    0.0000 C   0  0  0  0  0  0  0  0  0  0  0  0
   -2.5095   -1.4489    0.0000 C   0  0  0  0  0  0  0  0  0  0  0  0
   -2.8978    0.0000    0.0000 C   0  0  0  0  0  0  0  0  0  0  0  0
   -2.5095    1.4489    0.0000 C   0  0  0  0  0  0  0  0  0  0  0  0
   -1.4489    2.5095    0.0000 C   0  0  0  0  0  0  0  0  0  0  0  0
    0.0000    2.8978    0.0000 C   0  0  0  0  0  0  0  0  0  0  0  0
    1.4489    2.5095    0.0000 C   0  0  0  0  0  0  0  0  0  0  0  0
    2.5095    1.4489    0.0000 C   0  0  0  0  0  0  0  0  0  0  0  0
  1  2  2  0
  2  3  1  0
  2  4  1  0
  4  5  2  0
  5  6  1  0
  6  7  2  0
  7  8  1  0
  8  9  2  0
  9 10  1  0
 10 11  2  0
 11 12  1  0
 12 13  2  0
 13 14  1  0
 14 15  2  0
 15  4  1  0
M  END
>  <Title>  (68) 
idAACPgen8

$$$$

     RDKit          2D

 47 53  0  0  0  0  0  0  0  0999 V2000
    3.0000    0.0000    0.0000 C   0  0  0  0  0  0  0  0  0  0  0  0
    1.5000    0.0000    0.0000 C   0  0  0  0  0  0  0  0  0  0  0  0
    0.7500   -1.2990    0.0000 C   0  0  0  0  0  0  0  0  0  0  0  0
   -0.7500   -1.2990    0.0000 C   0  0  0  0  0  0  0  0  0  0  0  0
   -1.5000    0.0000    0.0000 C   0  0  0  0  0  0  0  0  0  0  0  0
   -3.0000    0.0000    0.0000 C   0  0  0  0  0  0  0  0  0  0  0  0
   -3.8817   -1.2135    0.0000 N   0  0  0  0  0  0  0  0  0  0  0  0
   -5.3083   -0.7500    0.0000 N   0  0  0  0  0  0  0  0  0  0  0  0
   -5.3083    0.7500    0.0000 N   0  0  0  0  0  0  0  0  0  0  0  0
   -3.8817    1.2135    0.0000 N   0  0  0  0  0  0  0  0  0  0  0  0
   -3.4182    2.6401    0.0000 C   0  0  0  0  0  0  0  0  0  0  0  0
   -1.9509    2.9520    0.0000 C   0  0  0  0  0  0  0  0  0  0  0  0
   -1.4874    4.3786    0.0000 C   0  0  0  0  0  0  0  0  0  0  0  0
   -2.4911    5.4933    0.0000 C   0  0  0  0  0  0  0  0  0  0  0  0
   -2.0276    6.9199    0.0000 N   0  0  0  0  0  0  0  0  0  0  0  0
   -0.5604    7.2317    0.0000 C   0  0  0  0  0  0  0  0  0  0  0  0
    0.4433    6.1170    0.0000 C   0  0  0  0  0  0  0  0  0  0  0  0
    1.9106    6.4289    0.0000 C   0  0  0  0  0  0  0  0  0  0  0  0
    2.3741    7.8555    0.0000 C   0  0  0  0  0  0  0  0  0  0  0  0
    1.3704    8.9702    0.0000 C   0  0  0  0  0  0  0  0  0  0  0  0
   -0.0968    8.6583    0.0000 C   0  0  0  0  0  0  0  0  0  0  0  0
   -1.1005    9.7730    0.0000 C   0  0  0  0  0  0  0  0  0  0  0  0
   -0.6370   11.1996    0.0000 C   0  0  0  0  0  0  0  0  0  0  0  0
   -1.6407   12.3143    0.0000 C   0  0  0  0  0  0  0  0  0  0  0  0
   -3.1079   12.0025    0.0000 C   0  0  0  0  0  0  0  0  0  0  0  0
   -3.5714   10.5759    0.0000 C   0  0  0  0  0  0  0  0  0  0  0  0
   -2.5677    9.4612    0.0000 C   0  0  0  0  0  0  0  0  0  0  0  0
   -3.9583    5.1814    0.0000 C   0  0  0  0  0  0  0  0  0  0  0  0
   -4.4218    3.7548    0.0000 C   0  0  0  0  0  0  0  0  0  0  0  0
   -5.8891    3.4430    0.0000 C   0  0  0  0  0  0  0  0  0  0  0  0
   -6.4992    2.0726    0.0000 N   0  0  0  0  0  0  0  0  0  0  0  0
   -7.9910    2.2294    0.0000 N   0  0  0  0  0  0  0  0  0  0  0  0
   -8.3028    3.6967    0.0000 N   0  0  0  0  0  0  0  0  0  0  0  0
   -7.0038    4.4467    0.0000 N   0  0  0  0  0  0  0  0  0  0  0  0
   -6.8470    5.9384    0.0000 C   0  0  0  0  0  0  0  0  0  0  0  0
   -5.4767    6.5485    0.0000 C   0  0  0  0  0  0  0  0  0  0  0  0
   -5.3199    8.0403    0.0000 C   0  0  0  0  0  0  0  0  0  0  0  0
   -6.5334    8.9220    0.0000 C   0  0  0  0  0  0  0  0  0  0  0  0
   -6.3766   10.4138    0.0000 C   0  0  0  0  0  0  0  0  0  0  0  0
   -5.0063   11.0239    0.0000 O   0  0  0  0  0  0  0  0  0  0  0  0
   -7.5901   11.2955    0.0000 N   0  0  0  0  0  0  0  0  0  0  0  0
   -7.4333   12.7872    0.0000 O   0  0  0  0  0  0  0  0  0  0  0  0
   -7.9037    8.3119    0.0000 N   0  0  0  0  0  0  0  0  0  0  0  0
   -8.0605    6.8201    0.0000 C   0  0  0  0  0  0  0  0  0  0  0  0
   -9.4308    6.2100    0.0000 O   0  0  0  0  0  0  0  0  0  0  0  0
   -0.7500    1.2990    0.0000 C   0  0  0  0  0  0  0  0  0  0  0  0
    0.7500    1.2990    0.0000 C   0  0  0  0  0  0  0  0  0  0  0  0
  1  2  1  0
  2  3  2  0
  3  4  1  0
  4  5  2  0
  5  6  1  0
  6  7  2  0
  7  8  1  0
  8  9  2  0
  9 10  1  0
 10 11  1  0
 11 12  2  0
 12 13  1  0
 13 14  2  0
 14 15  1  0
 15 16  1  0
 16 17  2  0
 17 18  1  0
 18 19  2  0
 19 20  1  0
 20 21  2  0
 21 22  1  0
 22 23  2  0
 23 24  1  0
 24 25  2  0
 25 26  1  0
 26 27  2  0
 14 28  1  0
 28 29  2  0
 29 30  1  0
 30 31  2  0
 31 32  1  0
 32 33  2  0
 33 34  1  0
 34 35  1  0
 35 36  2  0
 36 37  1  0
 37 38  2  0
 38 39  1  0
 39 40  2  0
 39 41  1  0
 41 42  1  0
 38 43  1  0
 43 44  1  0
 44 45  2  0
  5 46  1  0
 46 47  2  0
 47  2  1  0
 10  6  1  0
 29 11  1  0
 34 30  1  0
 44 35  1  0
 21 16  1  0
 27 22  1  0
M  END
>  <Title>  (69) 
idAACQgen8

$$$$

     RDKit          2D

 35 36  0  0  0  0  0  0  0  0999 V2000
   -2.5078   -0.9168    0.0000 C   0  0  0  0  0  0  0  0  0  0  0  0
   -2.5230    0.5831    0.0000 C   0  0  0  0  0  0  0  0  0  0  0  0
   -4.0167    0.7198    0.0000 C   0  0  0  0  0  0  0  0  0  0  0  0
   -5.4524    1.1543    0.0000 C   0  0  0  0  0  0  0  0  0  0  0  0
   -6.7713    1.8689    0.0000 C   0  0  0  0  0  0  0  0  0  0  0  0
   -7.9192    2.8344    0.0000 C   0  0  0  0  0  0  0  0  0  0  0  0
   -8.8494    4.0112    0.0000 C   0  0  0  0  0  0  0  0  0  0  0  0
   -9.5236    5.3511    0.0000 C   0  0  0  0  0  0  0  0  0  0  0  0
   -9.9142    6.7993    0.0000 C   0  0  0  0  0  0  0  0  0  0  0  0
  -10.0054    8.2966    0.0000 C   0  0  0  0  0  0  0  0  0  0  0  0
   -9.7933    9.7815    0.0000 C   0  0  0  0  0  0  0  0  0  0  0  0
   -9.2866   11.1933    0.0000 C   0  0  0  0  0  0  0  0  0  0  0  0
   -8.5061   12.4743    0.0000 C   0  0  0  0  0  0  0  0  0  0  0  0
   -7.4837   13.5719    0.0000 C   0  0  0  0  0  0  0  0  0  0  0  0
   -6.2613   14.4412    0.0000 C   0  0  0  0  0  0  0  0  0  0  0  0
   -4.8890   15.0467    0.0000 C   0  0  0  0  0  0  0  0  0  0  0  0
   -3.4228   15.3635    0.0000 C   0  0  0  0  0  0  0  0  0  0  0  0
   -1.9229   15.3787    0.0000 C   0  0  0  0  0  0  0  0  0  0  0  0
   -0.4506   15.0917    0.0000 C   0  0  0  0  0  0  0  0  0  0  0  0
    0.9338   14.5141    0.0000 C   0  0  0  0  0  0  0  0  0  0  0  0
    2.1735   13.6698    0.0000 C   0  0  0  0  0  0  0  0  0  0  0  0
    3.2179   12.5931    0.0000 C   0  0  0  0  0  0  0  0  0  0  0  0
    4.0242   11.3282    0.0000 C   0  0  0  0  0  0  0  0  0  0  0  0
    4.5594    9.9270    0.0000 C   0  0  0  0  0  0  0  0  0  0  0  0
    4.8016    8.4466    0.0000 C   0  0  0  0  0  0  0  0  0  0  0  0
    4.7408    6.9479    0.0000 C   0  0  0  0  0  0  0  0  0  0  0  0
    4.3796    5.4920    0.0000 C   0  0  0  0  0  0  0  0  0  0  0  0
    3.7326    4.1387    0.0000 C   0  0  0  0  0  0  0  0  0  0  0  0
    2.8266    2.9433    0.0000 C   0  0  0  0  0  0  0  0  0  0  0  0
    1.6984    1.9547    0.0000 C   0  0  0  0  0  0  0  0  0  0  0  0
    0.3943    1.2135    0.0000 C   0  0  0  0  0  0  0  0  0  0  0  0
    1.2760    0.0000    0.0000 C   0  0  0  0  0  0  0  0  0  0  0  0
    0.3943   -1.2135    0.0000 C   0  0  0  0  0  0  0  0  0  0  0  0
   -1.0323   -0.7500    0.0000 C   0  0  0  0  0  0  0  0  0  0  0  0
   -1.0323    0.7500    0.0000 C   0  0  0  0  0  0  0  0  0  0  0  0
  1  2  1  0
  2  3  2  0
  3  4  1  0
  4  5  2  0
  5  6  1  0
  6  7  2  0
  7  8  1  0
  8  9  2  0
  9 10  1  0
 10 11  2  0
 11 12  1  0
 12 13  2  0
 13 14  1  0
 14 15  2  0
 15 16  1  0
 16 17  2  0
 17 18  1  0
 18 19  2  0
 19 20  1  0
 20 21  2  0
 21 22  1  0
 22 23  2  0
 23 24  1  0
 24 25  2  0
 25 26  1  0
 26 27  2  0
 27 28  1  0
 28 29  2  0
 29 30  1  0
 30 31  2  0
 31 32  1  0
 32 33  2  0
 33 34  1  0
 34 35  2  0
 35  2  1  0
 35 31  1  0
M  END
>  <Title>  (70) 
idAACRgen8

$$$$

     RDKit          2D

 24 26  0  0  0  0  0  0  0  0999 V2000
    3.0000    0.0000    0.0000 C   0  0  0  0  0  0  0  0  0  0  0  0
    1.5000    0.0000    0.0000 C   0  0  0  0  0  0  0  0  0  0  0  0
    0.7500   -1.2990    0.0000 C   0  0  0  0  0  0  0  0  0  0  0  0
   -0.7500   -1.2990    0.0000 C   0  0  0  0  0  0  0  0  0  0  0  0
   -1.5000    0.0000    0.0000 C   0  0  0  0  0  0  0  0  0  0  0  0
   -3.0000    0.0000    0.0000 C   0  0  0  0  0  0  0  0  0  0  0  0
   -3.8817   -1.2135    0.0000 N   0  0  0  0  0  0  0  0  0  0  0  0
   -5.3083   -0.7500    0.0000 N   0  0  0  0  0  0  0  0  0  0  0  0
   -5.3083    0.7500    0.0000 N   0  0  0  0  0  0  0  0  0  0  0  0
   -3.8817    1.2135    0.0000 N   0  0  0  0  0  0  0  0  0  0  0  0
   -3.4182    2.6401    0.0000 C   0  0  0  0  0  0  0  0  0  0  0  0
   -1.9509    2.9520    0.0000 C   0  0  0  0  0  0  0  0  0  0  0  0
   -1.4874    4.3786    0.0000 C   0  0  0  0  0  0  0  0  0  0  0  0
   -2.4911    5.4933    0.0000 C   0  0  0  0  0  0  0  0  0  0  0  0
   -2.0276    6.9199    0.0000 C   0  0  0  0  0  0  0  0  0  0  0  0
   -3.0313    8.0346    0.0000 O   0  0  0  0  0  0  0  0  0  0  0  0
   -0.5604    7.2317    0.0000 N   0  0  0  0  0  0  0  0  0  0  0  0
   -0.0968    8.6583    0.0000 O   0  0  0  0  0  0  0  0  0  0  0  0
   -3.9583    5.1814    0.0000 N   0  0  0  0  0  0  0  0  0  0  0  0
   -4.4218    3.7548    0.0000 C   0  0  0  0  0  0  0  0  0  0  0  0
   -5.8891    3.4430    0.0000 O   0  0  0  0  0  0  0  0  0  0  0  0
   -0.7500    1.2990    0.0000 N   0  0  0  0  0  0  0  0  0  0  0  0
    0.7500    1.2990    0.0000 C   0  0  0  0  0  0  0  0  0  0  0  0
    1.5000    2.5981    0.0000 O   0  0  0  0  0  0  0  0  0  0  0  0
  1  2  1  0
  2  3  2  0
  3  4  1  0
  4  5  2  0
  5  6  1  0
  6  7  2  0
  7  8  1  0
  8  9  2  0
  9 10  1  0
 10 11  1  0
 11 12  2  0
 12 13  1  0
 13 14  2  0
 14 15  1  0
 15 16  2  0
 15 17  1  0
 17 18  1  0
 14 19  1  0
 19 20  1  0
 20 21  2  0
  5 22  1  0
 22 23  1  0
 23 24  2  0
 23  2  1  0
 10  6  1  0
 20 11  1  0
M  END
>  <Title>  (71) 
idAACSgen8

$$$$

     RDKit          2D

 59 68  0  0  0  0  0  0  0  0999 V2000
    4.0093    1.7558    0.0000 C   0  0  0  0  0  0  0  0  0  0  0  0
    5.0718    0.6970    0.0000 C   0  0  0  0  0  0  0  0  0  0  0  0
    4.5788   -0.7197    0.0000 C   0  0  0  0  0  0  0  0  0  0  0  0
    5.3791   -1.9884    0.0000 C   0  0  0  0  0  0  0  0  0  0  0  0
    6.8699   -2.1538    0.0000 C   0  0  0  0  0  0  0  0  0  0  0  0
    7.3678   -3.5688    0.0000 C   0  0  0  0  0  0  0  0  0  0  0  0
    8.8051   -3.9977    0.0000 N   0  0  0  0  0  0  0  0  0  0  0  0
    8.8414   -5.4972    0.0000 N   0  0  0  0  0  0  0  0  0  0  0  0
    7.4264   -5.9951    0.0000 N   0  0  0  0  0  0  0  0  0  0  0  0
    6.5157   -4.8032    0.0000 N   0  0  0  0  0  0  0  0  0  0  0  0
    1.5591   -4.7975    0.0000 C   0  0  0  0  0  0  0  0  0  0  0  0
    1.9479   -3.5867    0.0000 C   0  0  0  0  0  0  0  0  0  0  0  0
    1.6835   -3.4675    0.0000 C   0  0  0  0  0  0  0  0  0  0  0  0
    2.0782   -1.9961    0.0000 C   0  0  0  0  0  0  0  0  0  0  0  0
    0.7500   -1.2990    0.0000 C   0  0  0  0  0  0  0  0  0  0  0  0
    1.5000    0.0000    0.0000 C   0  0  0  0  0  0  0  0  0  0  0  0
    0.7500    1.2990    0.0000 C   0  0  0  0  0  0  0  0  0  0  0  0
   -0.7500    1.2990    0.0000 C   0  0  0  0  0  0  0  0  0  0  0  0
   -1.5000    0.0000    0.0000 N   0  0  0  0  0  0  0  0  0  0  0  0
   -0.7500   -1.2990    0.0000 C   0  0  0  0  0  0  0  0  0  0  0  0
   -2.0782   -1.9961    0.0000 C   0  0  0  0  0  0  0  0  0  0  0  0
   -2.9889   -0.8043    0.0000 N   0  0  0  0  0  0  0  0  0  0  0  0
   -4.4039   -1.3021    0.0000 N   0  0  0  0  0  0  0  0  0  0  0  0
   -4.3676   -2.8017    0.0000 N   0  0  0  0  0  0  0  0  0  0  0  0
   -2.9303   -3.2306    0.0000 N   0  0  0  0  0  0  0  0  0  0  0  0
   -3.1111   -4.7197    0.0000 C   0  0  0  0  0  0  0  0  0  0  0  0
   -4.6093   -4.7921    0.0000 N   0  0  0  0  0  0  0  0  0  0  0  0
   -5.0034   -6.2394    0.0000 N   0  0  0  0  0  0  0  0  0  0  0  0
   -3.7487   -7.0615    0.0000 N   0  0  0  0  0  0  0  0  0  0  0  0
   -2.5792   -6.1222    0.0000 N   0  0  0  0  0  0  0  0  0  0  0  0
   -1.4564   -7.1169    0.0000 C   0  0  0  0  0  0  0  0  0  0  0  0
   -0.5692   -6.4777    0.0000 C   0  0  0  0  0  0  0  0  0  0  0  0
   -0.1774   -6.6350    0.0000 C   0  0  0  0  0  0  0  0  0  0  0  0
    0.7447   -5.6493    0.0000 C   0  0  0  0  0  0  0  0  0  0  0  0
    3.1050   -9.7444    0.0000 C   0  0  0  0  0  0  0  0  0  0  0  0
    2.1286  -10.8831    0.0000 C   0  0  0  0  0  0  0  0  0  0  0  0
    2.6264  -12.2980    0.0000 C   0  0  0  0  0  0  0  0  0  0  0  0
    4.1007  -12.5744    0.0000 C   0  0  0  0  0  0  0  0  0  0  0  0
    5.0772  -11.4357    0.0000 C   0  0  0  0  0  0  0  0  0  0  0  0
    4.5794  -10.0208    0.0000 C   0  0  0  0  0  0  0  0  0  0  0  0
    0.9344   -5.8440    0.0000 C   0  0  0  0  0  0  0  0  0  0  0  0
    1.6188   -4.6201    0.0000 C   0  0  0  0  0  0  0  0  0  0  0  0
    0.0000   -7.4758    0.0000 N   0  0  0  0  0  0  0  0  0  0  0  0
    1.4564   -7.1169    0.0000 N   0  0  0  0  0  0  0  0  0  0  0  0
    2.5792   -6.1222    0.0000 N   0  0  0  0  0  0  0  0  0  0  0  0
    3.1111   -4.7197    0.0000 N   0  0  0  0  0  0  0  0  0  0  0  0
    2.9303   -3.2306    0.0000 C   0  0  0  0  0  0  0  0  0  0  0  0
    1.4739   -3.5896    0.0000 C   0  0  0  0  0  0  0  0  0  0  0  0
    0.7768   -2.2614    0.0000 O   0  0  0  0  0  0  0  0  0  0  0  0
    0.3511   -4.5843    0.0000 C   0  0  0  0  0  0  0  0  0  0  0  0
    1.8317   -4.3436    0.0000 C   0  0  0  0  0  0  0  0  0  0  0  0
    2.7803   -5.5055    0.0000 C   0  0  0  0  0  0  0  0  0  0  0  0
    2.2484   -6.9081    0.0000 C   0  0  0  0  0  0  0  0  0  0  0  0
    0.7679   -7.1487    0.0000 C   0  0  0  0  0  0  0  0  0  0  0  0
   -0.1808   -5.9868    0.0000 C   0  0  0  0  0  0  0  0  0  0  0  0
    7.9287   -1.0913    0.0000 N   0  0  0  0  0  0  0  0  0  0  0  0
    7.7582    0.3990    0.0000 C   0  0  0  0  0  0  0  0  0  0  0  0
    9.0269    1.1992    0.0000 O   0  0  0  0  0  0  0  0  0  0  0  0
    6.4868    1.1948    0.0000 N   0  0  0  0  0  0  0  0  0  0  0  0
  1  2  1  0
  2  3  2  0
  3  4  1  0
  4  5  2  0
  5  6  1  0
  6  7  2  0
  7  8  1  0
  8  9  2  0
  9 10  1  0
 10 11  1  0
 11 12  2  0
 12 13  1  0
 13 14  2  0
 14 15  1  0
 15 16  2  0
 16 17  1  0
 17 18  2  0
 18 19  1  0
 19 20  2  0
 20 21  1  0
 21 22  2  0
 22 23  1  0
 23 24  2  0
 24 25  1  0
 25 26  1  0
 26 27  2  0
 27 28  1  0
 28 29  2  0
 29 30  1  0
 30 31  1  0
 31 32  2  0
 32 33  1  0
 33 34  2  0
 34 35  1  0
 35 36  2  0
 36 37  1  0
 37 38  2  0
 38 39  1  0
 39 40  2  0
 34 41  1  0
 41 42  2  0
 31 43  1  0
 43 44  1  0
 44 45  2  0
 45 46  1  0
 46 47  2  0
 47 48  1  0
 48 49  2  0
 48 50  1  0
 50 51  2  0
 51 52  1  0
 52 53  2  0
 53 54  1  0
 54 55  2  0
  5 56  1  0
 56 57  1  0
 57 58  2  0
 57 59  1  0
 59  2  1  0
 10  6  1  0
 42 11  1  0
 55 43  1  0
 47 14  1  0
 55 50  1  0
 20 15  1  0
 25 21  1  0
 30 26  1  0
 40 35  1  0
M  END
>  <Title>  (72) 
idAACTgen8

$$$$

     RDKit          2D

 17 17  0  0  0  0  0  0  0  0999 V2000
    5.8573   -1.2990    0.0000 C   0  0  0  0  0  0  0  0  0  0  0  0
    5.1073    0.0000    0.0000 C   0  0  0  0  0  0  0  0  0  0  0  0
    3.6073    0.0000    0.0000 C   0  0  0  0  0  0  0  0  0  0  0  0
    3.2954    1.4672    0.0000 C   0  0  0  0  0  0  0  0  0  0  0  0
    2.4138    2.6807    0.0000 C   0  0  0  0  0  0  0  0  0  0  0  0
    1.1147    3.4307    0.0000 C   0  0  0  0  0  0  0  0  0  0  0  0
   -0.3771    3.5875    0.0000 C   0  0  0  0  0  0  0  0  0  0  0  0
   -1.8037    3.1240    0.0000 C   0  0  0  0  0  0  0  0  0  0  0  0
   -2.9184    2.1203    0.0000 C   0  0  0  0  0  0  0  0  0  0  0  0
   -3.5285    0.7500    0.0000 C   0  0  0  0  0  0  0  0  0  0  0  0
   -3.5285   -0.7500    0.0000 C   0  0  0  0  0  0  0  0  0  0  0  0
   -2.9184   -2.1203    0.0000 C   0  0  0  0  0  0  0  0  0  0  0  0
   -1.8037   -3.1240    0.0000 C   0  0  0  0  0  0  0  0  0  0  0  0
   -0.3771   -3.5875    0.0000 C   0  0  0  0  0  0  0  0  0  0  0  0
    1.1147   -3.4307    0.0000 C   0  0  0  0  0  0  0  0  0  0  0  0
    2.4138   -2.6807    0.0000 C   0  0  0  0  0  0  0  0  0  0  0  0
    3.2954   -1.4672    0.0000 C   0  0  0  0  0  0  0  0  0  0  0  0
  1  2  1  0
  2  3  1  0
  3  4  1  0
  4  5  1  0
  5  6  1  0
  6  7  1  0
  7  8  1  0
  8  9  1  0
  9 10  1  0
 10 11  1  0
 11 12  1  0
 12 13  1  0
 13 14  1  0
 14 15  1  0
 15 16  1  0
 16 17  1  0
 17  3  1  0
M  END
>  <Title>  (73) 
idAACUgen8

$$$$

     RDKit          2D

 14 14  0  0  0  0  0  0  0  0999 V2000
    3.9271    0.0000    0.0000 C   0  0  0  0  0  0  0  0  0  0  0  0
    2.4271    0.0000    0.0000 C   0  0  0  0  0  0  0  0  0  0  0  0
    1.9635   -1.4266    0.0000 C   0  0  0  0  0  0  0  0  0  0  0  0
    0.7500   -2.3083    0.0000 C   0  0  0  0  0  0  0  0  0  0  0  0
   -0.7500   -2.3083    0.0000 C   0  0  0  0  0  0  0  0  0  0  0  0
   -1.9635   -1.4266    0.0000 C   0  0  0  0  0  0  0  0  0  0  0  0
   -2.4271    0.0000    0.0000 C   0  0  0  0  0  0  0  0  0  0  0  0
   -3.9271    0.0000    0.0000 F   0  0  0  0  0  0  0  0  0  0  0  0
   -1.9635    1.4266    0.0000 C   0  0  0  0  0  0  0  0  0  0  0  0
   -3.1771    2.3083    0.0000 C   0  0  0  0  0  0  0  0  0  0  0  0
   -0.7500    2.3083    0.0000 C   0  0  0  0  0  0  0  0  0  0  0  0
    0.7500    2.3083    0.0000 C   0  0  0  0  0  0  0  0  0  0  0  0
    1.9635    1.4266    0.0000 C   0  0  0  0  0  0  0  0  0  0  0  0
    3.1771    2.3083    0.0000 N   0  0  0  0  0  0  0  0  0  0  0  0
  1  2  1  0
  2  3  2  0
  3  4  1  0
  4  5  2  0
  5  6  1  0
  6  7  2  0
  7  8  1  0
  7  9  1  0
  9 10  1  0
  9 11  2  0
 11 12  1  0
 12 13  2  0
 13 14  1  0
 13  2  1  0
M  END
>  <Title>  (74) 
idAACVgen8

$$$$

     RDKit          2D

 30 34  0  0  0  0  0  0  0  0999 V2000
    3.0000    0.0000    0.0000 C   0  0  0  0  0  0  0  0  0  0  0  0
    1.5000    0.0000    0.0000 C   0  0  0  0  0  0  0  0  0  0  0  0
    0.7500   -1.2990    0.0000 C   0  0  0  0  0  0  0  0  0  0  0  0
   -0.7500   -1.2990    0.0000 C   0  0  0  0  0  0  0  0  0  0  0  0
   -1.5000    0.0000    0.0000 C   0  0  0  0  0  0  0  0  0  0  0  0
   -3.0000    0.0000    0.0000 C   0  0  0  0  0  0  0  0  0  0  0  0
   -3.8817   -1.2135    0.0000 N   0  0  0  0  0  0  0  0  0  0  0  0
   -5.3083   -0.7500    0.0000 N   0  0  0  0  0  0  0  0  0  0  0  0
   -5.3083    0.7500    0.0000 N   0  0  0  0  0  0  0  0  0  0  0  0
   -3.8817    1.2135    0.0000 N   0  0  0  0  0  0  0  0  0  0  0  0
   -3.4182    2.6401    0.0000 C   0  0  0  0  0  0  0  0  0  0  0  0
   -1.9509    2.9520    0.0000 C   0  0  0  0  0  0  0  0  0  0  0  0
   -1.4874    4.3786    0.0000 C   0  0  0  0  0  0  0  0  0  0  0  0
   -2.4911    5.4933    0.0000 C   0  0  0  0  0  0  0  0  0  0  0  0
   -2.0276    6.9199    0.0000 C   0  0  0  0  0  0  0  0  0  0  0  0
   -2.9093    8.1334    0.0000 N   0  0  0  0  0  0  0  0  0  0  0  0
   -2.0276    9.3469    0.0000 N   0  0  0  0  0  0  0  0  0  0  0  0
   -0.6010    8.8834    0.0000 N   0  0  0  0  0  0  0  0  0  0  0  0
   -0.6010    7.3834    0.0000 N   0  0  0  0  0  0  0  0  0  0  0  0
    0.6125    6.5017    0.0000 C   0  0  0  0  0  0  0  0  0  0  0  0
    0.4557    5.0099    0.0000 C   0  0  0  0  0  0  0  0  0  0  0  0
    1.6693    4.1283    0.0000 C   0  0  0  0  0  0  0  0  0  0  0  0
    3.0396    4.7384    0.0000 C   0  0  0  0  0  0  0  0  0  0  0  0
    4.2531    3.8567    0.0000 C   0  0  0  0  0  0  0  0  0  0  0  0
    3.1964    6.2301    0.0000 C   0  0  0  0  0  0  0  0  0  0  0  0
    1.9829    7.1118    0.0000 C   0  0  0  0  0  0  0  0  0  0  0  0
   -3.9583    5.1814    0.0000 C   0  0  0  0  0  0  0  0  0  0  0  0
   -4.4218    3.7548    0.0000 N   0  0  0  0  0  0  0  0  0  0  0  0
   -0.7500    1.2990    0.0000 C   0  0  0  0  0  0  0  0  0  0  0  0
    0.7500    1.2990    0.0000 C   0  0  0  0  0  0  0  0  0  0  0  0
  1  2  1  0
  2  3  2  0
  3  4  1  0
  4  5  2  0
  5  6  1  0
  6  7  2  0
  7  8  1  0
  8  9  2  0
  9 10  1  0
 10 11  1  0
 11 12  2  0
 12 13  1  0
 13 14  2  0
 14 15  1  0
 15 16  2  0
 16 17  1  0
 17 18  2  0
 18 19  1  0
 19 20  1  0
 20 21  2  0
 21 22  1  0
 22 23  2  0
 23 24  1  0
 23 25  1  0
 25 26  2  0
 14 27  1  0
 27 28  2  0
  5 29  1  0
 29 30  2  0
 30  2  1  0
 10  6  1  0
 28 11  1  0
 19 15  1  0
 26 20  1  0
M  END
>  <Title>  (75) 
idAACWgen8

$$$$

     RDKit          2D

 21 22  0  0  0  0  0  0  0  0999 V2000
    6.7265    4.8871    0.0000 C   0  0  0  0  0  0  0  0  0  0  0  0
    5.5130    4.0054    0.0000 C   0  0  0  0  0  0  0  0  0  0  0  0
    5.7808    2.5295    0.0000 C   0  0  0  0  0  0  0  0  0  0  0  0
    4.7939    1.3999    0.0000 C   0  0  0  0  0  0  0  0  0  0  0  0
    3.2954    1.4672    0.0000 C   0  0  0  0  0  0  0  0  0  0  0  0
    3.6073    0.0000    0.0000 C   0  0  0  0  0  0  0  0  0  0  0  0
    3.2954   -1.4672    0.0000 C   0  0  0  0  0  0  0  0  0  0  0  0
    2.4138   -2.6807    0.0000 N   0  0  0  0  0  0  0  0  0  0  0  0
    1.1147   -3.4307    0.0000 C   0  0  0  0  0  0  0  0  0  0  0  0
   -0.3771   -3.5875    0.0000 C   0  0  0  0  0  0  0  0  0  0  0  0
   -1.8037   -3.1240    0.0000 C   0  0  0  0  0  0  0  0  0  0  0  0
   -2.9184   -2.1203    0.0000 C   0  0  0  0  0  0  0  0  0  0  0  0
   -3.5285   -0.7500    0.0000 C   0  0  0  0  0  0  0  0  0  0  0  0
   -3.5285    0.7500    0.0000 C   0  0  0  0  0  0  0  0  0  0  0  0
   -2.9184    2.1203    0.0000 C   0  0  0  0  0  0  0  0  0  0  0  0
   -1.8037    3.1240    0.0000 C   0  0  0  0  0  0  0  0  0  0  0  0
   -0.3771    3.5875    0.0000 C   0  0  0  0  0  0  0  0  0  0  0  0
    1.1147    3.4307    0.0000 C   0  0  0  0  0  0  0  0  0  0  0  0
    2.4138    2.6807    0.0000 C   0  0  0  0  0  0  0  0  0  0  0  0
    2.8128    4.1267    0.0000 C   0  0  0  0  0  0  0  0  0  0  0  0
    4.1921    4.7162    0.0000 C   0  0  0  0  0  0  0  0  0  0  0  0
  1  2  1  0
  2  3  2  0
  3  4  1  0
  4  5  2  0
  5  6  1  0
  6  7  2  0
  7  8  1  0
  8  9  2  0
  9 10  1  0
 10 11  2  0
 11 12  1  0
 12 13  2  0
 13 14  1  0
 14 15  2  0
 15 16  1  0
 16 17  2  0
 17 18  1  0
 18 19  2  0
 19 20  1  0
 20 21  1  0
 21  2  1  0
 19  5  1  0
M  END
>  <Title>  (76) 
idAACXgen8

$$$$

     RDKit          2D

 37 42  0  0  0  0  0  0  0  0999 V2000
    3.7500    1.2990    0.0000 C   0  0  0  0  0  0  0  0  0  0  0  0
    3.0000    0.0000    0.0000 O   0  0  0  0  0  0  0  0  0  0  0  0
    1.5000    0.0000    0.0000 C   0  0  0  0  0  0  0  0  0  0  0  0
    0.7500    1.2990    0.0000 C   0  0  0  0  0  0  0  0  0  0  0  0
   -0.7500    1.2990    0.0000 C   0  0  0  0  0  0  0  0  0  0  0  0
   -1.5000    0.0000    0.0000 C   0  0  0  0  0  0  0  0  0  0  0  0
   -3.0000    0.0000    0.0000 C   0  0  0  0  0  0  0  0  0  0  0  0
   -3.8817   -1.2135    0.0000 N   0  0  0  0  0  0  0  0  0  0  0  0
   -5.3083   -0.7500    0.0000 N   0  0  0  0  0  0  0  0  0  0  0  0
   -5.3083    0.7500    0.0000 N   0  0  0  0  0  0  0  0  0  0  0  0
   -3.8817    1.2135    0.0000 N   0  0  0  0  0  0  0  0  0  0  0  0
   -3.4182    2.6401    0.0000 C   0  0  0  0  0  0  0  0  0  0  0  0
   -4.2998    3.8536    0.0000 C   0  0  0  0  0  0  0  0  0  0  0  0
   -3.4182    5.0672    0.0000 C   0  0  0  0  0  0  0  0  0  0  0  0
   -1.9916    4.6036    0.0000 C   0  0  0  0  0  0  0  0  0  0  0  0
   -0.7780    5.4853    0.0000 C   0  0  0  0  0  0  0  0  0  0  0  0
    0.6485    5.0218    0.0000 N   0  0  0  0  0  0  0  0  0  0  0  0
    1.5302    6.2353    0.0000 N   0  0  0  0  0  0  0  0  0  0  0  0
    0.6485    7.4488    0.0000 N   0  0  0  0  0  0  0  0  0  0  0  0
   -0.7780    6.9853    0.0000 N   0  0  0  0  0  0  0  0  0  0  0  0
   -1.9916    7.8670    0.0000 C   0  0  0  0  0  0  0  0  0  0  0  0
   -3.3619    7.2569    0.0000 C   0  0  0  0  0  0  0  0  0  0  0  0
   -4.5754    8.1386    0.0000 C   0  0  0  0  0  0  0  0  0  0  0  0
   -4.4186    9.6303    0.0000 C   0  0  0  0  0  0  0  0  0  0  0  0
   -3.0483   10.2405    0.0000 C   0  0  0  0  0  0  0  0  0  0  0  0
   -1.8348    9.3588    0.0000 C   0  0  0  0  0  0  0  0  0  0  0  0
   -0.4645    9.9689    0.0000 C   0  0  0  0  0  0  0  0  0  0  0  0
   -0.3077   11.4607    0.0000 C   0  0  0  0  0  0  0  0  0  0  0  0
    1.0627   12.0708    0.0000 C   0  0  0  0  0  0  0  0  0  0  0  0
    2.2762   11.1891    0.0000 C   0  0  0  0  0  0  0  0  0  0  0  0
    2.1194    9.6973    0.0000 C   0  0  0  0  0  0  0  0  0  0  0  0
    0.7491    9.0872    0.0000 C   0  0  0  0  0  0  0  0  0  0  0  0
   -1.9916    3.1036    0.0000 C   0  0  0  0  0  0  0  0  0  0  0  0
   -0.7780    2.2220    0.0000 O   0  0  0  0  0  0  0  0  0  0  0  0
   -0.7500   -1.2990    0.0000 C   0  0  0  0  0  0  0  0  0  0  0  0
   -1.5000   -2.5981    0.0000 O   0  0  0  0  0  0  0  0  0  0  0  0
    0.7500   -1.2990    0.0000 N   0  0  0  0  0  0  0  0  0  0  0  0
  1  2  1  0
  2  3  1  0
  3  4  2  0
  4  5  1  0
  5  6  2  0
  6  7  1  0
  7  8  2  0
  8  9  1  0
  9 10  2  0
 10 11  1  0
 11 12  1  0
 12 13  2  0
 13 14  1  0
 14 15  2  0
 15 16  1  0
 16 17  2  0
 17 18  1  0
 18 19  2  0
 19 20  1  0
 20 21  1  0
 21 22  1  0
 22 23  1  0
 23 24  1  0
 24 25  1  0
 25 26  1  0
 26 27  1  0
 27 28  2  0
 28 29  1  0
 29 30  2  0
 30 31  1  0
 31 32  2  0
 15 33  1  0
 33 34  2  0
  6 35  1  0
 35 36  2  0
 35 37  1  0
 37  3  1  0
 11  7  1  0
 33 12  1  0
 20 16  1  0
 26 21  1  0
 32 27  1  0
M  END
>  <Title>  (77) 
idAACYgen8

$$$$

     RDKit          2D

 33 33  0  0  0  0  0  0  0  0999 V2000
    9.1517    0.0000    0.0000 C   0  0  0  0  0  0  0  0  0  0  0  0
    7.6517    0.0000    0.0000 C   0  0  0  0  0  0  0  0  0  0  0  0
    7.5047   -1.4928    0.0000 C   0  0  0  0  0  0  0  0  0  0  0  0
    7.0693   -2.9282    0.0000 C   0  0  0  0  0  0  0  0  0  0  0  0
    6.3622   -4.2511    0.0000 C   0  0  0  0  0  0  0  0  0  0  0  0
    5.4106   -5.4106    0.0000 C   0  0  0  0  0  0  0  0  0  0  0  0
    4.2511   -6.3622    0.0000 C   0  0  0  0  0  0  0  0  0  0  0  0
    2.9282   -7.0693    0.0000 C   0  0  0  0  0  0  0  0  0  0  0  0
    1.4928   -7.5047    0.0000 C   0  0  0  0  0  0  0  0  0  0  0  0
   -0.0000   -7.6517    0.0000 C   0  0  0  0  0  0  0  0  0  0  0  0
   -1.4928   -7.5047    0.0000 C   0  0  0  0  0  0  0  0  0  0  0  0
   -2.9282   -7.0693    0.0000 C   0  0  0  0  0  0  0  0  0  0  0  0
   -4.2511   -6.3622    0.0000 C   0  0  0  0  0  0  0  0  0  0  0  0
   -5.4106   -5.4106    0.0000 C   0  0  0  0  0  0  0  0  0  0  0  0
   -6.3622   -4.2511    0.0000 C   0  0  0  0  0  0  0  0  0  0  0  0
   -7.0693   -2.9282    0.0000 C   0  0  0  0  0  0  0  0  0  0  0  0
   -7.5047   -1.4928    0.0000 C   0  0  0  0  0  0  0  0  0  0  0  0
   -7.6517    0.0000    0.0000 C   0  0  0  0  0  0  0  0  0  0  0  0
   -7.5047    1.4928    0.0000 C   0  0  0  0  0  0  0  0  0  0  0  0
   -7.0693    2.9282    0.0000 C   0  0  0  0  0  0  0  0  0  0  0  0
   -6.3622    4.2511    0.0000 C   0  0  0  0  0  0  0  0  0  0  0  0
   -5.4106    5.4106    0.0000 C   0  0  0  0  0  0  0  0  0  0  0  0
   -4.2511    6.3622    0.0000 C   0  0  0  0  0  0  0  0  0  0  0  0
   -2.9282    7.0693    0.0000 C   0  0  0  0  0  0  0  0  0  0  0  0
   -1.4928    7.5047    0.0000 C   0  0  0  0  0  0  0  0  0  0  0  0
    0.0000    7.6517    0.0000 C   0  0  0  0  0  0  0  0  0  0  0  0
    1.4928    7.5047    0.0000 C   0  0  0  0  0  0  0  0  0  0  0  0
    2.9282    7.0693    0.0000 C   0  0  0  0  0  0  0  0  0  0  0  0
    4.2511    6.3622    0.0000 C   0  0  0  0  0  0  0  0  0  0  0  0
    5.4106    5.4106    0.0000 C   0  0  0  0  0  0  0  0  0  0  0  0
    6.3622    4.2511    0.0000 C   0  0  0  0  0  0  0  0  0  0  0  0
    7.0693    2.9282    0.0000 C   0  0  0  0  0  0  0  0  0  0  0  0
    7.5047    1.4928    0.0000 C   0  0  0  0  0  0  0  0  0  0  0  0
  1  2  1  0
  2  3  2  0
  3  4  1  0
  4  5  2  0
  5  6  2  0
  6  7  2  0
  7  8  1  0
  8  9  2  0
  9 10  1  0
 10 11  2  0
 11 12  1  0
 12 13  2  0
 13 14  1  0
 14 15  2  0
 15 16  1  0
 16 17  2  0
 17 18  1  0
 18 19  2  0
 19 20  1  0
 20 21  2  0
 21 22  1  0
 22 23  2  0
 23 24  1  0
 24 25  2  0
 25 26  1  0
 26 27  2  0
 27 28  1  0
 28 29  2  0
 29 30  1  0
 30 31  2  0
 31 32  1  0
 32 33  2  0
 33  2  1  0
M  END
>  <Title>  (78) 
idAACZgen8

$$$$

     RDKit          2D

 24 26  0  0  0  0  0  0  0  0999 V2000
    3.0000    0.0000    0.0000 C   0  0  0  0  0  0  0  0  0  0  0  0
    1.5000    0.0000    0.0000 C   0  0  0  0  0  0  0  0  0  0  0  0
    0.7500    1.2990    0.0000 C   0  0  0  0  0  0  0  0  0  0  0  0
   -0.7500    1.2990    0.0000 C   0  0  0  0  0  0  0  0  0  0  0  0
   -1.5000    0.0000    0.0000 C   0  0  0  0  0  0  0  0  0  0  0  0
   -3.0000    0.0000    0.0000 N   0  0  0  0  0  0  0  0  0  0  0  0
   -3.8817   -1.2135    0.0000 N   0  0  0  0  0  0  0  0  0  0  0  0
   -5.3083   -0.7500    0.0000 N   0  0  0  0  0  0  0  0  0  0  0  0
   -5.3083    0.7500    0.0000 N   0  0  0  0  0  0  0  0  0  0  0  0
   -3.8817    1.2135    0.0000 C   0  0  0  0  0  0  0  0  0  0  0  0
   -3.4182    2.6401    0.0000 C   0  0  0  0  0  0  0  0  0  0  0  0
   -1.9509    2.9520    0.0000 C   0  0  0  0  0  0  0  0  0  0  0  0
   -1.4874    4.3786    0.0000 C   0  0  0  0  0  0  0  0  0  0  0  0
   -2.4911    5.4933    0.0000 C   0  0  0  0  0  0  0  0  0  0  0  0
   -2.0276    6.9199    0.0000 C   0  0  0  0  0  0  0  0  0  0  0  0
   -3.0313    8.0346    0.0000 O   0  0  0  0  0  0  0  0  0  0  0  0
   -0.5604    7.2317    0.0000 N   0  0  0  0  0  0  0  0  0  0  0  0
   -0.0968    8.6583    0.0000 O   0  0  0  0  0  0  0  0  0  0  0  0
   -3.9583    5.1814    0.0000 N   0  0  0  0  0  0  0  0  0  0  0  0
   -4.4218    3.7548    0.0000 C   0  0  0  0  0  0  0  0  0  0  0  0
   -5.8891    3.4430    0.0000 O   0  0  0  0  0  0  0  0  0  0  0  0
   -0.7500   -1.2990    0.0000 C   0  0  0  0  0  0  0  0  0  0  0  0
   -1.5000   -2.5981    0.0000 O   0  0  0  0  0  0  0  0  0  0  0  0
    0.7500   -1.2990    0.0000 N   0  0  0  0  0  0  0  0  0  0  0  0
  1  2  1  0
  2  3  2  0
  3  4  1  0
  4  5  2  0
  5  6  1  0
  6  7  1  0
  7  8  2  0
  8  9  1  0
  9 10  2  0
 10 11  1  0
 11 12  2  0
 12 13  1  0
 13 14  2  0
 14 15  1  0
 15 16  2  0
 15 17  1  0
 17 18  1  0
 14 19  1  0
 19 20  1  0
 20 21  2  0
  5 22  1  0
 22 23  2  0
 22 24  1  0
 24  2  1  0
 10  6  1  0
 20 11  1  0
M  END
>  <Title>  (79) 
idAADAgen8

$$$$

     RDKit          2D

 35 40  0  0  0  0  0  0  0  0999 V2000
    3.0000    0.0000    0.0000 C   0  0  0  0  0  0  0  0  0  0  0  0
    1.5000    0.0000    0.0000 C   0  0  0  0  0  0  0  0  0  0  0  0
    0.7500   -1.2990    0.0000 C   0  0  0  0  0  0  0  0  0  0  0  0
   -0.7500   -1.2990    0.0000 C   0  0  0  0  0  0  0  0  0  0  0  0
   -1.5000    0.0000    0.0000 C   0  0  0  0  0  0  0  0  0  0  0  0
   -3.0000    0.0000    0.0000 C   0  0  0  0  0  0  0  0  0  0  0  0
   -3.8817   -1.2135    0.0000 N   0  0  0  0  0  0  0  0  0  0  0  0
   -5.3083   -0.7500    0.0000 N   0  0  0  0  0  0  0  0  0  0  0  0
   -5.3083    0.7500    0.0000 N   0  0  0  0  0  0  0  0  0  0  0  0
   -3.8817    1.2135    0.0000 N   0  0  0  0  0  0  0  0  0  0  0  0
   -3.4182    2.6401    0.0000 C   0  0  0  0  0  0  0  0  0  0  0  0
   -1.9509    2.9520    0.0000 C   0  0  0  0  0  0  0  0  0  0  0  0
   -1.4874    4.3786    0.0000 C   0  0  0  0  0  0  0  0  0  0  0  0
   -2.4911    5.4933    0.0000 C   0  0  0  0  0  0  0  0  0  0  0  0
   -2.0276    6.9199    0.0000 N   0  0  0  0  0  0  0  0  0  0  0  0
   -0.5604    7.2317    0.0000 C   0  0  0  0  0  0  0  0  0  0  0  0
    0.0498    8.6021    0.0000 N   0  0  0  0  0  0  0  0  0  0  0  0
    1.5415    8.4453    0.0000 N   0  0  0  0  0  0  0  0  0  0  0  0
    1.8534    6.9780    0.0000 N   0  0  0  0  0  0  0  0  0  0  0  0
    0.5544    6.2280    0.0000 N   0  0  0  0  0  0  0  0  0  0  0  0
    0.3976    4.7363    0.0000 C   0  0  0  0  0  0  0  0  0  0  0  0
   -0.9015    3.9863    0.0000 C   0  0  0  0  0  0  0  0  0  0  0  0
   -0.5896    2.5190    0.0000 N   0  0  0  0  0  0  0  0  0  0  0  0
    0.9022    2.3622    0.0000 N   0  0  0  0  0  0  0  0  0  0  0  0
    1.5123    3.7326    0.0000 N   0  0  0  0  0  0  0  0  0  0  0  0
    2.9795    4.0444    0.0000 C   0  0  0  0  0  0  0  0  0  0  0  0
    3.4430    5.4710    0.0000 C   0  0  0  0  0  0  0  0  0  0  0  0
    4.9103    5.7829    0.0000 C   0  0  0  0  0  0  0  0  0  0  0  0
    5.9140    4.6682    0.0000 C   0  0  0  0  0  0  0  0  0  0  0  0
    5.4504    3.2416    0.0000 C   0  0  0  0  0  0  0  0  0  0  0  0
    3.9832    2.9297    0.0000 C   0  0  0  0  0  0  0  0  0  0  0  0
   -3.9583    5.1814    0.0000 C   0  0  0  0  0  0  0  0  0  0  0  0
   -4.4218    3.7548    0.0000 C   0  0  0  0  0  0  0  0  0  0  0  0
   -0.7500    1.2990    0.0000 C   0  0  0  0  0  0  0  0  0  0  0  0
    0.7500    1.2990    0.0000 C   0  0  0  0  0  0  0  0  0  0  0  0
  1  2  1  0
  2  3  2  0
  3  4  1  0
  4  5  2  0
  5  6  1  0
  6  7  2  0
  7  8  1  0
  8  9  2  0
  9 10  1  0
 10 11  1  0
 11 12  2  0
 12 13  1  0
 13 14  2  0
 14 15  1  0
 15 16  1  0
 16 17  2  0
 17 18  1  0
 18 19  2  0
 19 20  1  0
 20 21  1  0
 21 22  2  0
 22 23  1  0
 23 24  2  0
 24 25  1  0
 25 26  1  0
 26 27  2  0
 27 28  1  0
 28 29  2  0
 29 30  1  0
 30 31  2  0
 14 32  1  0
 32 33  2  0
  5 34  1  0
 34 35  2  0
 35  2  1  0
 10  6  1  0
 33 11  1  0
 20 16  1  0
 25 21  1  0
 31 26  1  0
M  END
>  <Title>  (80) 
idAADBgen8

$$$$

     RDKit          2D

 19 19  0  0  0  0  0  0  0  0999 V2000
    6.0944   -1.2990    0.0000 C   0  0  0  0  0  0  0  0  0  0  0  0
    5.3444    0.0000    0.0000 O   0  0  0  0  0  0  0  0  0  0  0  0
    3.8444    0.0000    0.0000 C   0  0  0  0  0  0  0  0  0  0  0  0
    3.5517   -1.4712    0.0000 C   0  0  0  0  0  0  0  0  0  0  0  0
    2.7184   -2.7184    0.0000 C   0  0  0  0  0  0  0  0  0  0  0  0
    1.4712   -3.5517    0.0000 C   0  0  0  0  0  0  0  0  0  0  0  0
   -0.0000   -3.8444    0.0000 C   0  0  0  0  0  0  0  0  0  0  0  0
   -1.4712   -3.5517    0.0000 C   0  0  0  0  0  0  0  0  0  0  0  0
   -2.7184   -2.7184    0.0000 C   0  0  0  0  0  0  0  0  0  0  0  0
   -3.5517   -1.4712    0.0000 C   0  0  0  0  0  0  0  0  0  0  0  0
   -3.8444    0.0000    0.0000 C   0  0  0  0  0  0  0  0  0  0  0  0
   -3.5517    1.4712    0.0000 C   0  0  0  0  0  0  0  0  0  0  0  0
   -2.7184    2.7184    0.0000 C   0  0  0  0  0  0  0  0  0  0  0  0
   -1.4712    3.5517    0.0000 C   0  0  0  0  0  0  0  0  0  0  0  0
    0.0000    3.8444    0.0000 C   0  0  0  0  0  0  0  0  0  0  0  0
    1.4712    3.5517    0.0000 C   0  0  0  0  0  0  0  0  0  0  0  0
    2.7184    2.7184    0.0000 C   0  0  0  0  0  0  0  0  0  0  0  0
    3.5517    1.4712    0.0000 C   0  0  0  0  0  0  0  0  0  0  0  0
    4.9376    2.0452    0.0000 N   0  0  0  0  0  0  0  0  0  0  0  0
  1  2  1  0
  2  3  1  0
  3  4  2  0
  4  5  1  0
  5  6  2  0
  6  7  1  0
  7  8  2  0
  8  9  1  0
  9 10  2  0
 10 11  1  0
 11 12  2  0
 12 13  1  0
 13 14  2  0
 14 15  1  0
 15 16  2  0
 16 17  1  0
 17 18  2  0
 18 19  1  0
 18  3  1  0
M  END
>  <Title>  (81) 
idAADCgen8

$$$$

     RDKit          2D

 13 13  0  0  0  0  0  0  0  0999 V2000
    4.9121   -1.2990    0.0000 C   0  0  0  0  0  0  0  0  0  0  0  0
    4.1621    0.0000    0.0000 O   0  0  0  0  0  0  0  0  0  0  0  0
    2.6621    0.0000    0.0000 C   0  0  0  0  0  0  0  0  0  0  0  0
    2.2395    1.4392    0.0000 C   0  0  0  0  0  0  0  0  0  0  0  0
    1.1059    2.4215    0.0000 C   0  0  0  0  0  0  0  0  0  0  0  0
   -0.3789    2.6350    0.0000 C   0  0  0  0  0  0  0  0  0  0  0  0
   -1.7433    2.0119    0.0000 C   0  0  0  0  0  0  0  0  0  0  0  0
   -2.5543    0.7500    0.0000 C   0  0  0  0  0  0  0  0  0  0  0  0
   -2.5543   -0.7500    0.0000 C   0  0  0  0  0  0  0  0  0  0  0  0
   -1.7433   -2.0119    0.0000 C   0  0  0  0  0  0  0  0  0  0  0  0
   -0.3789   -2.6350    0.0000 C   0  0  0  0  0  0  0  0  0  0  0  0
    1.1059   -2.4215    0.0000 C   0  0  0  0  0  0  0  0  0  0  0  0
    2.2395   -1.4392    0.0000 C   0  0  0  0  0  0  0  0  0  0  0  0
  1  2  1  0
  2  3  1  0
  3  4  2  0
  4  5  1  0
  5  6  2  0
  6  7  2  0
  7  8  1  0
  8  9  2  0
  9 10  1  0
 10 11  2  0
 11 12  1  0
 12 13  2  0
 13  3  1  0
M  END
>  <Title>  (82) 
idAADDgen8

$$$$

     RDKit          2D

 11 11  0  0  0  0  0  0  0  0999 V2000
    4.2098   -1.2990    0.0000 C   0  0  0  0  0  0  0  0  0  0  0  0
    3.4598   -0.0000    0.0000 O   0  0  0  0  0  0  0  0  0  0  0  0
    1.9598    0.0000    0.0000 C   0  0  0  0  0  0  0  0  0  0  0  0
    1.3858   -1.3858    0.0000 C   0  0  0  0  0  0  0  0  0  0  0  0
   -0.0000   -1.9598    0.0000 C   0  0  0  0  0  0  0  0  0  0  0  0
   -1.3858   -1.3858    0.0000 C   0  0  0  0  0  0  0  0  0  0  0  0
   -1.9598    0.0000    0.0000 C   0  0  0  0  0  0  0  0  0  0  0  0
   -1.3858    1.3858    0.0000 C   0  0  0  0  0  0  0  0  0  0  0  0
   -2.4465    2.4465    0.0000 F   0  0  0  0  0  0  0  0  0  0  0  0
    0.0000    1.9598    0.0000 C   0  0  0  0  0  0  0  0  0  0  0  0
    1.3858    1.3858    0.0000 C   0  0  0  0  0  0  0  0  0  0  0  0
  1  2  1  0
  2  3  1  0
  3  4  2  0
  4  5  1  0
  5  6  2  0
  6  7  1  0
  7  8  2  0
  8  9  1  0
  8 10  1  0
 10 11  2  0
 11  3  1  0
M  END
>  <Title>  (83) 
idAADEgen8

$$$$

     RDKit          2D

 24 27  0  0  0  0  0  0  0  0999 V2000
   -5.7801    4.4154    0.0000 C   0  0  0  0  0  0  0  0  0  0  0  0
   -4.4924    5.1847    0.0000 C   0  0  0  0  0  0  0  0  0  0  0  0
   -3.2405    4.3584    0.0000 C   0  0  0  0  0  0  0  0  0  0  0  0
   -1.8140    4.8219    0.0000 C   0  0  0  0  0  0  0  0  0  0  0  0
   -1.2869    6.2263    0.0000 C   0  0  0  0  0  0  0  0  0  0  0  0
    0.2071    6.3607    0.0000 C   0  0  0  0  0  0  0  0  0  0  0  0
    0.9764    7.6484    0.0000 N   0  0  0  0  0  0  0  0  0  0  0  0
    2.4388    7.3146    0.0000 N   0  0  0  0  0  0  0  0  0  0  0  0
    2.5733    5.8207    0.0000 N   0  0  0  0  0  0  0  0  0  0  0  0
    1.1940    5.2311    0.0000 N   0  0  0  0  0  0  0  0  0  0  0  0
    0.8602    3.7687    0.0000 C   0  0  0  0  0  0  0  0  0  0  0  0
    1.8471    2.6391    0.0000 C   0  0  0  0  0  0  0  0  0  0  0  0
    1.0777    1.3515    0.0000 C   0  0  0  0  0  0  0  0  0  0  0  0
    1.7286    0.0000    0.0000 C   0  0  0  0  0  0  0  0  0  0  0  0
    1.0777   -1.3515    0.0000 C   0  0  0  0  0  0  0  0  0  0  0  0
   -0.3846   -1.6852    0.0000 N   0  0  0  0  0  0  0  0  0  0  0  0
   -1.5574   -0.7500    0.0000 C   0  0  0  0  0  0  0  0  0  0  0  0
   -1.5574    0.7500    0.0000 C   0  0  0  0  0  0  0  0  0  0  0  0
   -0.3846    1.6852    0.0000 C   0  0  0  0  0  0  0  0  0  0  0  0
   -0.5191    3.1792    0.0000 C   0  0  0  0  0  0  0  0  0  0  0  0
   -1.8068    3.9485    0.0000 O   0  0  0  0  0  0  0  0  0  0  0  0
   -2.0562    7.5139    0.0000 N   0  0  0  0  0  0  0  0  0  0  0  0
   -3.5427    7.7153    0.0000 C   0  0  0  0  0  0  0  0  0  0  0  0
   -4.6269    6.6787    0.0000 C   0  0  0  0  0  0  0  0  0  0  0  0
  1  2  1  0
  2  3  2  0
  3  4  1  0
  4  5  2  0
  5  6  1  0
  6  7  2  0
  7  8  1  0
  8  9  2  0
  9 10  1  0
 10 11  1  0
 11 12  1  0
 12 13  1  0
 13 14  1  0
 14 15  1  0
 15 16  1  0
 16 17  2  0
 17 18  1  0
 18 19  2  0
 19 20  1  0
 20 21  2  0
  5 22  1  0
 22 23  1  0
 23 24  2  0
 24  2  1  0
 10  6  1  0
 20 11  1  0
 19 13  1  0
M  END
>  <Title>  (84) 
idAADFgen8

$$$$

     RDKit          2D

 52 59  0  0  0  0  0  0  0  0999 V2000
    3.0000    0.0000    0.0000 C   0  0  0  0  0  0  0  0  0  0  0  0
    1.5000    0.0000    0.0000 C   0  0  0  0  0  0  0  0  0  0  0  0
    0.7500   -1.2990    0.0000 C   0  0  0  0  0  0  0  0  0  0  0  0
   -0.7500   -1.2990    0.0000 C   0  0  0  0  0  0  0  0  0  0  0  0
   -1.5000    0.0000    0.0000 C   0  0  0  0  0  0  0  0  0  0  0  0
   -3.0000    0.0000    0.0000 C   0  0  0  0  0  0  0  0  0  0  0  0
   -3.8817   -1.2135    0.0000 N   0  0  0  0  0  0  0  0  0  0  0  0
   -5.3083   -0.7500    0.0000 N   0  0  0  0  0  0  0  0  0  0  0  0
   -5.3083    0.7500    0.0000 N   0  0  0  0  0  0  0  0  0  0  0  0
   -3.8817    1.2135    0.0000 N   0  0  0  0  0  0  0  0  0  0  0  0
   -3.4182    2.6401    0.0000 C   0  0  0  0  0  0  0  0  0  0  0  0
   -1.9509    2.9520    0.0000 C   0  0  0  0  0  0  0  0  0  0  0  0
   -1.4874    4.3786    0.0000 C   0  0  0  0  0  0  0  0  0  0  0  0
   -2.4911    5.4933    0.0000 C   0  0  0  0  0  0  0  0  0  0  0  0
   -2.0276    6.9199    0.0000 C   0  0  0  0  0  0  0  0  0  0  0  0
   -3.0313    8.0346    0.0000 O   0  0  0  0  0  0  0  0  0  0  0  0
   -0.5604    7.2317    0.0000 N   0  0  0  0  0  0  0  0  0  0  0  0
   -0.0968    8.6583    0.0000 C   0  0  0  0  0  0  0  0  0  0  0  0
   -0.9785    9.8718    0.0000 N   0  0  0  0  0  0  0  0  0  0  0  0
   -0.0968   11.0854    0.0000 N   0  0  0  0  0  0  0  0  0  0  0  0
    1.3298   10.6218    0.0000 N   0  0  0  0  0  0  0  0  0  0  0  0
    1.3298    9.1218    0.0000 N   0  0  0  0  0  0  0  0  0  0  0  0
    2.5433    8.2402    0.0000 C   0  0  0  0  0  0  0  0  0  0  0  0
    2.3865    6.7484    0.0000 C   0  0  0  0  0  0  0  0  0  0  0  0
    3.6000    5.8667    0.0000 C   0  0  0  0  0  0  0  0  0  0  0  0
    4.9703    6.4768    0.0000 C   0  0  0  0  0  0  0  0  0  0  0  0
    6.1839    5.5951    0.0000 C   0  0  0  0  0  0  0  0  0  0  0  0
    6.0271    4.1033    0.0000 C   0  0  0  0  0  0  0  0  0  0  0  0
    7.2406    3.2217    0.0000 C   0  0  0  0  0  0  0  0  0  0  0  0
    8.6109    3.8318    0.0000 C   0  0  0  0  0  0  0  0  0  0  0  0
    8.7677    5.3236    0.0000 C   0  0  0  0  0  0  0  0  0  0  0  0
    7.5542    6.2052    0.0000 C   0  0  0  0  0  0  0  0  0  0  0  0
    5.1271    7.9686    0.0000 C   0  0  0  0  0  0  0  0  0  0  0  0
    3.9136    8.8503    0.0000 C   0  0  0  0  0  0  0  0  0  0  0  0
    4.0704   10.3421    0.0000 C   0  0  0  0  0  0  0  0  0  0  0  0
    5.4407   10.9522    0.0000 C   0  0  0  0  0  0  0  0  0  0  0  0
    5.5975   12.4439    0.0000 C   0  0  0  0  0  0  0  0  0  0  0  0
    4.3840   13.3256    0.0000 C   0  0  0  0  0  0  0  0  0  0  0  0
    3.0137   12.7155    0.0000 C   0  0  0  0  0  0  0  0  0  0  0  0
    2.8569   11.2237    0.0000 C   0  0  0  0  0  0  0  0  0  0  0  0
   -3.9583    5.1814    0.0000 C   0  0  0  0  0  0  0  0  0  0  0  0
   -4.4218    3.7548    0.0000 C   0  0  0  0  0  0  0  0  0  0  0  0
   -5.8891    3.4430    0.0000 C   0  0  0  0  0  0  0  0  0  0  0  0
   -6.8928    4.5577    0.0000 C   0  0  0  0  0  0  0  0  0  0  0  0
   -8.3600    4.2458    0.0000 C   0  0  0  0  0  0  0  0  0  0  0  0
   -8.8235    2.8192    0.0000 C   0  0  0  0  0  0  0  0  0  0  0  0
  -10.2907    2.5074    0.0000 C   0  0  0  0  0  0  0  0  0  0  0  0
   -7.8198    1.7045    0.0000 C   0  0  0  0  0  0  0  0  0  0  0  0
   -8.2833    0.2779    0.0000 O   0  0  0  0  0  0  0  0  0  0  0  0
   -6.3526    2.0164    0.0000 N   0  0  0  0  0  0  0  0  0  0  0  0
   -0.7500    1.2990    0.0000 N   0  0  0  0  0  0  0  0  0  0  0  0
    0.7500    1.2990    0.0000 C   0  0  0  0  0  0  0  0  0  0  0  0
  1  2  1  0
  2  3  2  0
  3  4  1  0
  4  5  2  0
  5  6  1  0
  6  7  2  0
  7  8  1  0
  8  9  2  0
  9 10  1  0
 10 11  1  0
 11 12  2  0
 12 13  1  0
 13 14  2  0
 14 15  1  0
 15 16  2  0
 15 17  1  0
 17 18  1  0
 18 19  2  0
 19 20  1  0
 20 21  2  0
 21 22  1  0
 22 23  1  0
 23 24  2  0
 24 25  1  0
 25 26  2  0
 26 27  1  0
 27 28  2  0
 28 29  1  0
 29 30  2  0
 30 31  1  0
 31 32  2  0
 26 33  1  0
 33 34  2  0
 34 35  1  0
 35 36  2  0
 36 37  1  0
 37 38  2  0
 38 39  1  0
 39 40  2  0
 14 41  1  0
 41 42  2  0
 42 43  1  0
 43 44  2  0
 44 45  1  0
 45 46  2  0
 46 47  1  0
 46 48  1  0
 48 49  2  0
 48 50  1  0
  5 51  1  0
 51 52  1  0
 52  2  1  0
 10  6  1  0
 42 11  1  0
 50 43  1  0
 22 18  1  0
 34 23  1  0
 40 35  1  0
 32 27  1  0
M  END
>  <Title>  (85) 
idAADGgen8

$$$$

     RDKit          2D

 37 42  0  0  0  0  0  0  0  0999 V2000
   -5.6321   10.5120    0.0000 C   0  0  0  0  0  0  0  0  0  0  0  0
   -4.4186    9.6303    0.0000 C   0  0  0  0  0  0  0  0  0  0  0  0
   -3.0483   10.2405    0.0000 C   0  0  0  0  0  0  0  0  0  0  0  0
   -1.8348    9.3588    0.0000 C   0  0  0  0  0  0  0  0  0  0  0  0
   -1.9916    7.8670    0.0000 C   0  0  0  0  0  0  0  0  0  0  0  0
   -0.7780    6.9853    0.0000 C   0  0  0  0  0  0  0  0  0  0  0  0
    0.6485    7.4488    0.0000 N   0  0  0  0  0  0  0  0  0  0  0  0
    1.5302    6.2353    0.0000 N   0  0  0  0  0  0  0  0  0  0  0  0
    0.6485    5.0218    0.0000 N   0  0  0  0  0  0  0  0  0  0  0  0
   -0.7780    5.4853    0.0000 N   0  0  0  0  0  0  0  0  0  0  0  0
   -1.9916    4.6036    0.0000 C   0  0  0  0  0  0  0  0  0  0  0  0
   -3.4182    5.0672    0.0000 C   0  0  0  0  0  0  0  0  0  0  0  0
   -4.2998    3.8536    0.0000 N   0  0  0  0  0  0  0  0  0  0  0  0
   -3.4182    2.6401    0.0000 N   0  0  0  0  0  0  0  0  0  0  0  0
   -1.9916    3.1036    0.0000 N   0  0  0  0  0  0  0  0  0  0  0  0
   -0.7780    2.2220    0.0000 C   0  0  0  0  0  0  0  0  0  0  0  0
   -0.9348    0.7302    0.0000 C   0  0  0  0  0  0  0  0  0  0  0  0
    0.2787   -0.1515    0.0000 C   0  0  0  0  0  0  0  0  0  0  0  0
    1.6490    0.4586    0.0000 C   0  0  0  0  0  0  0  0  0  0  0  0
    2.8625   -0.4231    0.0000 C   0  0  0  0  0  0  0  0  0  0  0  0
    2.7057   -1.9149    0.0000 O   0  0  0  0  0  0  0  0  0  0  0  0
    4.2329    0.1870    0.0000 N   0  0  0  0  0  0  0  0  0  0  0  0
    5.4464   -0.6946    0.0000 C   0  0  0  0  0  0  0  0  0  0  0  0
    5.4464   -2.1946    0.0000 N   0  0  0  0  0  0  0  0  0  0  0  0
    6.8730   -2.6582    0.0000 N   0  0  0  0  0  0  0  0  0  0  0  0
    7.7546   -1.4446    0.0000 N   0  0  0  0  0  0  0  0  0  0  0  0
    6.8730   -0.2311    0.0000 N   0  0  0  0  0  0  0  0  0  0  0  0
    7.3365    1.1955    0.0000 C   0  0  0  0  0  0  0  0  0  0  0  0
    8.8037    1.5073    0.0000 C   0  0  0  0  0  0  0  0  0  0  0  0
    9.2672    2.9339    0.0000 C   0  0  0  0  0  0  0  0  0  0  0  0
    8.2635    4.0486    0.0000 C   0  0  0  0  0  0  0  0  0  0  0  0
    6.7963    3.7368    0.0000 C   0  0  0  0  0  0  0  0  0  0  0  0
    6.3328    2.3102    0.0000 C   0  0  0  0  0  0  0  0  0  0  0  0
    1.8058    1.9504    0.0000 C   0  0  0  0  0  0  0  0  0  0  0  0
    0.5923    2.8321    0.0000 C   0  0  0  0  0  0  0  0  0  0  0  0
   -3.3619    7.2569    0.0000 C   0  0  0  0  0  0  0  0  0  0  0  0
   -4.5754    8.1386    0.0000 C   0  0  0  0  0  0  0  0  0  0  0  0
  1  2  1  0
  2  3  2  0
  3  4  1  0
  4  5  2  0
  5  6  1  0
  6  7  2  0
  7  8  1  0
  8  9  2  0
  9 10  1  0
 10 11  1  0
 11 12  2  0
 12 13  1  0
 13 14  2  0
 14 15  1  0
 15 16  1  0
 16 17  2  0
 17 18  1  0
 18 19  2  0
 19 20  1  0
 20 21  2  0
 20 22  1  0
 22 23  1  0
 23 24  2  0
 24 25  1  0
 25 26  2  0
 26 27  1  0
 27 28  1  0
 28 29  2  0
 29 30  1  0
 30 31  2  0
 31 32  1  0
 32 33  2  0
 19 34  1  0
 34 35  2  0
  5 36  1  0
 36 37  2  0
 37  2  1  0
 10  6  1  0
 15 11  1  0
 35 16  1  0
 27 23  1  0
 33 28  1  0
M  END
>  <Title>  (86) 
idAADHgen8

$$$$

     RDKit          2D

 14 15  0  0  0  0  0  0  0  0999 V2000
   -4.0351    6.3975    0.0000 C   0  0  0  0  0  0  0  0  0  0  0  0
   -4.0875    4.8984    0.0000 O   0  0  0  0  0  0  0  0  0  0  0  0
   -2.8154    4.1036    0.0000 C   0  0  0  0  0  0  0  0  0  0  0  0
   -1.6334    5.0270    0.0000 C   0  0  0  0  0  0  0  0  0  0  0  0
   -0.1343    4.9747    0.0000 C   0  0  0  0  0  0  0  0  0  0  0  0
    0.9804    3.9710    0.0000 C   0  0  0  0  0  0  0  0  0  0  0  0
    1.1892    2.4856    0.0000 C   0  0  0  0  0  0  0  0  0  0  0  0
    0.3943    1.2135    0.0000 C   0  0  0  0  0  0  0  0  0  0  0  0
    1.2760    0.0000    0.0000 C   0  0  0  0  0  0  0  0  0  0  0  0
    0.3943   -1.2135    0.0000 C   0  0  0  0  0  0  0  0  0  0  0  0
   -1.0323   -0.7500    0.0000 C   0  0  0  0  0  0  0  0  0  0  0  0
   -1.0323    0.7500    0.0000 C   0  0  0  0  0  0  0  0  0  0  0  0
   -2.4231    1.3119    0.0000 C   0  0  0  0  0  0  0  0  0  0  0  0
   -3.1273    2.6363    0.0000 C   0  0  0  0  0  0  0  0  0  0  0  0
  1  2  1  0
  2  3  1  0
  3  4  2  0
  4  5  1  0
  5  6  2  0
  6  7  1  0
  7  8  2  0
  8  9  1  0
  9 10  2  0
 10 11  1  0
 11 12  2  0
 12 13  1  0
 13 14  2  0
 14  3  1  0
 12  8  1  0
M  END
>  <Title>  (87) 
idAADIgen8

$$$$

     RDKit          2D

 28 31  0  0  0  0  0  0  0  0999 V2000
    3.0000    0.0000    0.0000 C   0  0  0  0  0  0  0  0  0  0  0  0
    1.5000    0.0000    0.0000 C   0  0  0  0  0  0  0  0  0  0  0  0
    0.7500   -1.2990    0.0000 C   0  0  0  0  0  0  0  0  0  0  0  0
   -0.7500   -1.2990    0.0000 C   0  0  0  0  0  0  0  0  0  0  0  0
   -1.5000    0.0000    0.0000 C   0  0  0  0  0  0  0  0  0  0  0  0
   -3.0000    0.0000    0.0000 C   0  0  0  0  0  0  0  0  0  0  0  0
   -3.8817   -1.2135    0.0000 N   0  0  0  0  0  0  0  0  0  0  0  0
   -5.3083   -0.7500    0.0000 N   0  0  0  0  0  0  0  0  0  0  0  0
   -5.3083    0.7500    0.0000 N   0  0  0  0  0  0  0  0  0  0  0  0
   -3.8817    1.2135    0.0000 N   0  0  0  0  0  0  0  0  0  0  0  0
   -3.4182    2.6401    0.0000 C   0  0  0  0  0  0  0  0  0  0  0  0
   -1.9509    2.9520    0.0000 C   0  0  0  0  0  0  0  0  0  0  0  0
   -1.4874    4.3786    0.0000 C   0  0  0  0  0  0  0  0  0  0  0  0
   -2.4911    5.4933    0.0000 C   0  0  0  0  0  0  0  0  0  0  0  0
   -3.9583    5.1814    0.0000 C   0  0  0  0  0  0  0  0  0  0  0  0
   -4.4218    3.7548    0.0000 C   0  0  0  0  0  0  0  0  0  0  0  0
   -5.8891    3.4430    0.0000 C   0  0  0  0  0  0  0  0  0  0  0  0
   -6.8928    4.5577    0.0000 C   0  0  0  0  0  0  0  0  0  0  0  0
   -8.3600    4.2458    0.0000 C   0  0  0  0  0  0  0  0  0  0  0  0
   -8.8235    2.8192    0.0000 C   0  0  0  0  0  0  0  0  0  0  0  0
  -10.2907    2.5074    0.0000 C   0  0  0  0  0  0  0  0  0  0  0  0
  -10.7543    1.0808    0.0000 O   0  0  0  0  0  0  0  0  0  0  0  0
  -11.2944    3.6221    0.0000 N   0  0  0  0  0  0  0  0  0  0  0  0
  -12.7617    3.3102    0.0000 O   0  0  0  0  0  0  0  0  0  0  0  0
   -7.8198    1.7045    0.0000 C   0  0  0  0  0  0  0  0  0  0  0  0
   -6.3526    2.0164    0.0000 C   0  0  0  0  0  0  0  0  0  0  0  0
   -0.7500    1.2990    0.0000 C   0  0  0  0  0  0  0  0  0  0  0  0
    0.7500    1.2990    0.0000 C   0  0  0  0  0  0  0  0  0  0  0  0
  1  2  1  0
  2  3  2  0
  3  4  1  0
  4  5  2  0
  5  6  1  0
  6  7  2  0
  7  8  1  0
  8  9  2  0
  9 10  1  0
 10 11  1  0
 11 12  1  0
 12 13  1  0
 13 14  1  0
 14 15  1  0
 15 16  1  0
 16 17  1  0
 17 18  2  0
 18 19  1  0
 19 20  2  0
 20 21  1  0
 21 22  2  0
 21 23  1  0
 23 24  1  0
 20 25  1  0
 25 26  1  0
  5 27  1  0
 27 28  2  0
 28  2  1  0
 10  6  1  0
 16 11  1  0
 26 17  1  0
M  END
>  <Title>  (88) 
idAADJgen8

$$$$

     RDKit          2D

 33 37  0  0  0  0  0  0  0  0999 V2000
    3.7500    1.2990    0.0000 C   0  0  0  0  0  0  0  0  0  0  0  0
    3.0000    0.0000    0.0000 O   0  0  0  0  0  0  0  0  0  0  0  0
    1.5000    0.0000    0.0000 C   0  0  0  0  0  0  0  0  0  0  0  0
    0.7500    1.2990    0.0000 C   0  0  0  0  0  0  0  0  0  0  0  0
   -0.7500    1.2990    0.0000 C   0  0  0  0  0  0  0  0  0  0  0  0
   -1.5000    0.0000    0.0000 C   0  0  0  0  0  0  0  0  0  0  0  0
   -3.0000    0.0000    0.0000 C   0  0  0  0  0  0  0  0  0  0  0  0
   -3.8817   -1.2135    0.0000 N   0  0  0  0  0  0  0  0  0  0  0  0
   -5.3083   -0.7500    0.0000 N   0  0  0  0  0  0  0  0  0  0  0  0
   -5.3083    0.7500    0.0000 N   0  0  0  0  0  0  0  0  0  0  0  0
   -3.8817    1.2135    0.0000 N   0  0  0  0  0  0  0  0  0  0  0  0
   -3.4182    2.6401    0.0000 C   0  0  0  0  0  0  0  0  0  0  0  0
   -4.2998    3.8536    0.0000 N   0  0  0  0  0  0  0  0  0  0  0  0
   -3.4182    5.0672    0.0000 C   0  0  0  0  0  0  0  0  0  0  0  0
   -3.8817    6.4937    0.0000 C   0  0  0  0  0  0  0  0  0  0  0  0
   -5.3489    6.8056    0.0000 O   0  0  0  0  0  0  0  0  0  0  0  0
   -1.9916    4.6036    0.0000 C   0  0  0  0  0  0  0  0  0  0  0  0
   -0.7780    5.4853    0.0000 C   0  0  0  0  0  0  0  0  0  0  0  0
    0.6485    5.0218    0.0000 N   0  0  0  0  0  0  0  0  0  0  0  0
    1.5302    6.2353    0.0000 N   0  0  0  0  0  0  0  0  0  0  0  0
    0.6485    7.4488    0.0000 N   0  0  0  0  0  0  0  0  0  0  0  0
   -0.7780    6.9853    0.0000 N   0  0  0  0  0  0  0  0  0  0  0  0
   -1.9916    7.8670    0.0000 C   0  0  0  0  0  0  0  0  0  0  0  0
   -3.3619    7.2569    0.0000 C   0  0  0  0  0  0  0  0  0  0  0  0
   -4.5754    8.1386    0.0000 C   0  0  0  0  0  0  0  0  0  0  0  0
   -4.4186    9.6303    0.0000 C   0  0  0  0  0  0  0  0  0  0  0  0
   -3.0483   10.2405    0.0000 C   0  0  0  0  0  0  0  0  0  0  0  0
   -1.8348    9.3588    0.0000 C   0  0  0  0  0  0  0  0  0  0  0  0
   -1.9916    3.1036    0.0000 C   0  0  0  0  0  0  0  0  0  0  0  0
   -0.7780    2.2220    0.0000 O   0  0  0  0  0  0  0  0  0  0  0  0
   -0.7500   -1.2990    0.0000 N   0  0  0  0  0  0  0  0  0  0  0  0
    0.7500   -1.2990    0.0000 C   0  0  0  0  0  0  0  0  0  0  0  0
    1.5000   -2.5981    0.0000 O   0  0  0  0  0  0  0  0  0  0  0  0
  1  2  1  0
  2  3  1  0
  3  4  2  0
  4  5  1  0
  5  6  2  0
  6  7  1  0
  7  8  2  0
  8  9  1  0
  9 10  2  0
 10 11  1  0
 11 12  1  0
 12 13  1  0
 13 14  1  0
 14 15  1  0
 15 16  1  0
 14 17  1  0
 17 18  1  0
 18 19  2  0
 19 20  1  0
 20 21  2  0
 21 22  1  0
 22 23  1  0
 23 24  2  0
 24 25  1  0
 25 26  2  0
 26 27  1  0
 27 28  2  0
 17 29  1  0
 29 30  2  0
  6 31  1  0
 31 32  1  0
 32 33  2  0
 32  3  1  0
 11  7  1  0
 29 12  1  0
 22 18  1  0
 28 23  1  0
M  END
>  <Title>  (89) 
idAADKgen8

$$$$

     RDKit          2D

 40 45  0  0  0  0  0  0  0  0999 V2000
   -0.7248    5.6137    0.0000 O   0  0  0  0  0  0  0  0  0  0  0  0
   -1.3763    4.7354    0.0000 C   0  0  0  0  0  0  0  0  0  0  0  0
   -2.8280    5.1128    0.0000 C   0  0  0  0  0  0  0  0  0  0  0  0
   -3.3760    6.5091    0.0000 C   0  0  0  0  0  0  0  0  0  0  0  0
   -2.4408    7.6819    0.0000 C   0  0  0  0  0  0  0  0  0  0  0  0
   -2.9888    9.0782    0.0000 C   0  0  0  0  0  0  0  0  0  0  0  0
   -4.4721    9.3017    0.0000 C   0  0  0  0  0  0  0  0  0  0  0  0
   -5.4073    8.1290    0.0000 C   0  0  0  0  0  0  0  0  0  0  0  0
   -4.8593    6.7327    0.0000 C   0  0  0  0  0  0  0  0  0  0  0  0
   -3.6355    3.8487    0.0000 C   0  0  0  0  0  0  0  0  0  0  0  0
   -2.6829    2.6901    0.0000 C   0  0  0  0  0  0  0  0  0  0  0  0
   -1.2866    3.2381    0.0000 C   0  0  0  0  0  0  0  0  0  0  0  0
   -0.0225    2.4306    0.0000 C   0  0  0  0  0  0  0  0  0  0  0  0
   -0.0898    0.9321    0.0000 C   0  0  0  0  0  0  0  0  0  0  0  0
    1.1743    0.1246    0.0000 C   0  0  0  0  0  0  0  0  0  0  0  0
    2.5057    0.8155    0.0000 C   0  0  0  0  0  0  0  0  0  0  0  0
    2.5730    2.3140    0.0000 C   0  0  0  0  0  0  0  0  0  0  0  0
    1.3089    3.1216    0.0000 C   0  0  0  0  0  0  0  0  0  0  0  0
    1.3762    4.6200    0.0000 N   0  0  0  0  0  0  0  0  0  0  0  0
    0.2034    5.5553    0.0000 N   0  0  0  0  0  0  0  0  0  0  0  0
    0.7305    6.9596    0.0000 N   0  0  0  0  0  0  0  0  0  0  0  0
    2.2290    6.8923    0.0000 N   0  0  0  0  0  0  0  0  0  0  0  0
    2.6281    5.4464    0.0000 C   0  0  0  0  0  0  0  0  0  0  0  0
    4.0324    4.9193    0.0000 N   0  0  0  0  0  0  0  0  0  0  0  0
    5.2843    5.7457    0.0000 N   0  0  0  0  0  0  0  0  0  0  0  0
    6.4570    4.8104    0.0000 N   0  0  0  0  0  0  0  0  0  0  0  0
    5.9300    3.4061    0.0000 N   0  0  0  0  0  0  0  0  0  0  0  0
    4.4315    3.4734    0.0000 C   0  0  0  0  0  0  0  0  0  0  0  0
    3.4962    2.3006    0.0000 N   0  0  0  0  0  0  0  0  0  0  0  0
    2.0130    2.5242    0.0000 C   0  0  0  0  0  0  0  0  0  0  0  0
    1.1434    3.7464    0.0000 O   0  0  0  0  0  0  0  0  0  0  0  0
    1.0777    1.3515    0.0000 C   0  0  0  0  0  0  0  0  0  0  0  0
    1.7286    0.0000    0.0000 C   0  0  0  0  0  0  0  0  0  0  0  0
    1.0777   -1.3515    0.0000 C   0  0  0  0  0  0  0  0  0  0  0  0
   -0.3846   -1.6852    0.0000 C   0  0  0  0  0  0  0  0  0  0  0  0
   -1.5574   -0.7500    0.0000 C   0  0  0  0  0  0  0  0  0  0  0  0
   -1.5574    0.7500    0.0000 C   0  0  0  0  0  0  0  0  0  0  0  0
   -2.9088    1.4008    0.0000 O   0  0  0  0  0  0  0  0  0  0  0  0
   -0.3846    1.6852    0.0000 C   0  0  0  0  0  0  0  0  0  0  0  0
   -1.0624    3.0234    0.0000 O   0  0  0  0  0  0  0  0  0  0  0  0
  1  2  2  0
  2  3  1  0
  3  4  1  0
  4  5  2  0
  5  6  1  0
  6  7  2  0
  7  8  1  0
  8  9  2  0
  3 10  2  0
 10 11  1  0
 11 12  2  0
 12 13  1  0
 13 14  1  0
 14 15  1  0
 15 16  1  0
 16 17  1  0
 17 18  1  0
 18 19  1  0
 19 20  1  0
 20 21  2  0
 21 22  1  0
 22 23  2  0
 23 24  1  0
 24 25  1  0
 25 26  2  0
 26 27  1  0
 27 28  2  0
 28 29  1  0
 29 30  1  0
 30 31  2  0
 30 32  1  0
 32 33  2  0
 33 34  1  0
 34 35  2  0
 35 36  1  0
 36 37  2  0
 37 38  1  0
 37 39  1  0
 39 40  2  0
 12  2  1  0
 18 13  1  0
 23 19  1  0
 28 24  1  0
 39 32  1  0
  9  4  1  0
M  END
>  <Title>  (90) 
idAADLgen8

$$$$

     RDKit          2D

 36 40  0  0  0  0  0  0  0  0999 V2000
    8.1048   -5.7068    0.0000 C   0  0  0  0  0  0  0  0  0  0  0  0
    8.5683   -4.2803    0.0000 O   0  0  0  0  0  0  0  0  0  0  0  0
    7.5646   -3.1655    0.0000 C   0  0  0  0  0  0  0  0  0  0  0  0
    7.8765   -1.6983    0.0000 C   0  0  0  0  0  0  0  0  0  0  0  0
    6.5774   -0.9483    0.0000 C   0  0  0  0  0  0  0  0  0  0  0  0
    5.4627   -1.9520    0.0000 C   0  0  0  0  0  0  0  0  0  0  0  0
    3.9955   -1.6402    0.0000 C   0  0  0  0  0  0  0  0  0  0  0  0
    2.9918   -2.7549    0.0000 C   0  0  0  0  0  0  0  0  0  0  0  0
    3.3037   -4.2221    0.0000 N   0  0  0  0  0  0  0  0  0  0  0  0
    2.0046   -4.9721    0.0000 N   0  0  0  0  0  0  0  0  0  0  0  0
    0.8899   -3.9684    0.0000 N   0  0  0  0  0  0  0  0  0  0  0  0
    1.5000   -2.5981    0.0000 N   0  0  0  0  0  0  0  0  0  0  0  0
    0.7500   -1.2990    0.0000 C   0  0  0  0  0  0  0  0  0  0  0  0
    1.5000    0.0000    0.0000 C   0  0  0  0  0  0  0  0  0  0  0  0
    0.7500    1.2990    0.0000 C   0  0  0  0  0  0  0  0  0  0  0  0
   -0.7500    1.2990    0.0000 C   0  0  0  0  0  0  0  0  0  0  0  0
   -1.5000    0.0000    0.0000 C   0  0  0  0  0  0  0  0  0  0  0  0
   -0.7500   -1.2990    0.0000 C   0  0  0  0  0  0  0  0  0  0  0  0
   -1.5000   -2.5981    0.0000 C   0  0  0  0  0  0  0  0  0  0  0  0
   -0.8899   -3.9684    0.0000 C   0  0  0  0  0  0  0  0  0  0  0  0
   -2.0046   -4.9721    0.0000 N   0  0  0  0  0  0  0  0  0  0  0  0
   -3.3037   -4.2221    0.0000 N   0  0  0  0  0  0  0  0  0  0  0  0
   -2.9918   -2.7549    0.0000 N   0  0  0  0  0  0  0  0  0  0  0  0
   -3.9955   -1.6402    0.0000 C   0  0  0  0  0  0  0  0  0  0  0  0
   -3.5320   -0.2136    0.0000 C   0  0  0  0  0  0  0  0  0  0  0  0
   -4.5356    0.9012    0.0000 C   0  0  0  0  0  0  0  0  0  0  0  0
   -6.0029    0.5893    0.0000 C   0  0  0  0  0  0  0  0  0  0  0  0
   -7.0066    1.7040    0.0000 C   0  0  0  0  0  0  0  0  0  0  0  0
   -8.4738    1.3921    0.0000 O   0  0  0  0  0  0  0  0  0  0  0  0
   -6.5430    3.1306    0.0000 N   0  0  0  0  0  0  0  0  0  0  0  0
   -7.5467    4.2453    0.0000 O   0  0  0  0  0  0  0  0  0  0  0  0
   -6.4664   -0.8373    0.0000 C   0  0  0  0  0  0  0  0  0  0  0  0
   -7.9336   -1.1492    0.0000 C   0  0  0  0  0  0  0  0  0  0  0  0
   -5.4627   -1.9520    0.0000 C   0  0  0  0  0  0  0  0  0  0  0  0
   -5.9262   -3.3786    0.0000 O   0  0  0  0  0  0  0  0  0  0  0  0
    6.0728   -3.3223    0.0000 N   0  0  0  0  0  0  0  0  0  0  0  0
  1  2  1  0
  2  3  1  0
  3  4  2  0
  4  5  1  0
  5  6  2  0
  6  7  1  0
  7  8  1  0
  8  9  2  0
  9 10  1  0
 10 11  2  0
 11 12  1  0
 12 13  1  0
 13 14  1  0
 14 15  1  0
 15 16  1  0
 16 17  1  0
 17 18  1  0
 18 19  1  0
 19 20  2  0
 20 21  1  0
 21 22  2  0
 22 23  1  0
 23 24  1  0
 24 25  2  0
 25 26  1  0
 26 27  2  0
 27 28  1  0
 28 29  2  0
 28 30  1  0
 30 31  1  0
 27 32  1  0
 32 33  1  0
 32 34  1  0
 34 35  2  0
  6 36  1  0
 36  3  1  0
 12  8  1  0
 18 13  1  0
 23 19  1  0
 34 24  1  0
M  END
>  <Title>  (91) 
idAADMgen8

$$$$

     RDKit          2D

 34 38  0  0  0  0  0  0  0  0999 V2000
    3.9786   -1.2990    0.0000 C   0  0  0  0  0  0  0  0  0  0  0  0
    3.2286   -0.0000    0.0000 O   0  0  0  0  0  0  0  0  0  0  0  0
    1.7286    0.0000    0.0000 C   0  0  0  0  0  0  0  0  0  0  0  0
    1.0777    1.3515    0.0000 C   0  0  0  0  0  0  0  0  0  0  0  0
   -0.3846    1.6852    0.0000 C   0  0  0  0  0  0  0  0  0  0  0  0
   -1.5574    0.7500    0.0000 C   0  0  0  0  0  0  0  0  0  0  0  0
   -2.7301    1.6852    0.0000 C   0  0  0  0  0  0  0  0  0  0  0  0
   -4.1925    1.3515    0.0000 C   0  0  0  0  0  0  0  0  0  0  0  0
   -4.8434   -0.0000    0.0000 C   0  0  0  0  0  0  0  0  0  0  0  0
   -4.1925   -1.3515    0.0000 N   0  0  0  0  0  0  0  0  0  0  0  0
   -5.1278   -2.5242    0.0000 C   0  0  0  0  0  0  0  0  0  0  0  0
   -4.5798   -3.9205    0.0000 O   0  0  0  0  0  0  0  0  0  0  0  0
   -6.6110   -2.3006    0.0000 N   0  0  0  0  0  0  0  0  0  0  0  0
   -7.5462   -3.4734    0.0000 C   0  0  0  0  0  0  0  0  0  0  0  0
   -7.1472   -4.9193    0.0000 N   0  0  0  0  0  0  0  0  0  0  0  0
   -8.3991   -5.7457    0.0000 N   0  0  0  0  0  0  0  0  0  0  0  0
   -9.5718   -4.8104    0.0000 N   0  0  0  0  0  0  0  0  0  0  0  0
   -9.0447   -3.4061    0.0000 N   0  0  0  0  0  0  0  0  0  0  0  0
   -9.8711   -2.1542    0.0000 C   0  0  0  0  0  0  0  0  0  0  0  0
   -9.2001   -0.8127    0.0000 C   0  0  0  0  0  0  0  0  0  0  0  0
  -10.0265    0.4392    0.0000 C   0  0  0  0  0  0  0  0  0  0  0  0
  -11.5238    0.3495    0.0000 C   0  0  0  0  0  0  0  0  0  0  0  0
  -12.1947   -0.9921    0.0000 C   0  0  0  0  0  0  0  0  0  0  0  0
  -11.3684   -2.2439    0.0000 C   0  0  0  0  0  0  0  0  0  0  0  0
  -12.0394   -3.5855    0.0000 C   0  0  0  0  0  0  0  0  0  0  0  0
  -13.5367   -3.6752    0.0000 C   0  0  0  0  0  0  0  0  0  0  0  0
  -14.2077   -5.0168    0.0000 C   0  0  0  0  0  0  0  0  0  0  0  0
  -13.3813   -6.2686    0.0000 C   0  0  0  0  0  0  0  0  0  0  0  0
  -11.8840   -6.1789    0.0000 C   0  0  0  0  0  0  0  0  0  0  0  0
  -11.2130   -4.8374    0.0000 C   0  0  0  0  0  0  0  0  0  0  0  0
   -2.7301   -1.6852    0.0000 C   0  0  0  0  0  0  0  0  0  0  0  0
   -1.5574   -0.7500    0.0000 C   0  0  0  0  0  0  0  0  0  0  0  0
   -0.3846   -1.6852    0.0000 C   0  0  0  0  0  0  0  0  0  0  0  0
    1.0777   -1.3515    0.0000 C   0  0  0  0  0  0  0  0  0  0  0  0
  1  2  1  0
  2  3  1  0
  3  4  2  0
  4  5  1  0
  5  6  2  0
  6  7  1  0
  7  8  2  0
  8  9  1  0
  9 10  1  0
 10 11  1  0
 11 12  2  0
 11 13  1  0
 13 14  1  0
 14 15  2  0
 15 16  1  0
 16 17  2  0
 17 18  1  0
 18 19  1  0
 19 20  2  0
 20 21  1  0
 21 22  2  0
 22 23  1  0
 23 24  2  0
 24 25  1  0
 25 26  2  0
 26 27  1  0
 27 28  2  0
 28 29  1  0
 29 30  2  0
 10 31  1  0
 31 32  2  0
 32 33  1  0
 33 34  2  0
 34  3  1  0
 32  6  1  0
 18 14  1  0
 24 19  1  0
 30 25  1  0
M  END
>  <Title>  (92) 
idAADNgen8

$$$$

     RDKit          2D

 44 50  0  0  0  0  0  0  0  0999 V2000
  -11.5327    3.6666    0.0000 C   0  0  0  0  0  0  0  0  0  0  0  0
  -10.1624    4.2767    0.0000 O   0  0  0  0  0  0  0  0  0  0  0  0
   -8.9488    3.3950    0.0000 C   0  0  0  0  0  0  0  0  0  0  0  0
   -9.1056    1.9033    0.0000 C   0  0  0  0  0  0  0  0  0  0  0  0
   -7.8921    1.0216    0.0000 C   0  0  0  0  0  0  0  0  0  0  0  0
   -6.5218    1.6317    0.0000 C   0  0  0  0  0  0  0  0  0  0  0  0
   -5.3083    0.7500    0.0000 N   0  0  0  0  0  0  0  0  0  0  0  0
   -5.3083   -0.7500    0.0000 N   0  0  0  0  0  0  0  0  0  0  0  0
   -3.8817   -1.2135    0.0000 N   0  0  0  0  0  0  0  0  0  0  0  0
   -3.0000    0.0000    0.0000 N   0  0  0  0  0  0  0  0  0  0  0  0
   -3.8817    1.2135    0.0000 C   0  0  0  0  0  0  0  0  0  0  0  0
   -3.4182    2.6401    0.0000 C   0  0  0  0  0  0  0  0  0  0  0  0
   -4.2998    3.8536    0.0000 N   0  0  0  0  0  0  0  0  0  0  0  0
   -3.4182    5.0672    0.0000 N   0  0  0  0  0  0  0  0  0  0  0  0
   -1.9916    4.6036    0.0000 N   0  0  0  0  0  0  0  0  0  0  0  0
   -1.9916    3.1036    0.0000 N   0  0  0  0  0  0  0  0  0  0  0  0
   -0.7780    2.2220    0.0000 C   0  0  0  0  0  0  0  0  0  0  0  0
   -0.9348    0.7302    0.0000 C   0  0  0  0  0  0  0  0  0  0  0  0
    0.2787   -0.1515    0.0000 C   0  0  0  0  0  0  0  0  0  0  0  0
    1.6490    0.4586    0.0000 C   0  0  0  0  0  0  0  0  0  0  0  0
    2.8625   -0.4231    0.0000 C   0  0  0  0  0  0  0  0  0  0  0  0
    2.7057   -1.9149    0.0000 O   0  0  0  0  0  0  0  0  0  0  0  0
    4.2329    0.1870    0.0000 N   0  0  0  0  0  0  0  0  0  0  0  0
    5.4464   -0.6946    0.0000 C   0  0  0  0  0  0  0  0  0  0  0  0
    5.4464   -2.1946    0.0000 N   0  0  0  0  0  0  0  0  0  0  0  0
    6.8730   -2.6582    0.0000 N   0  0  0  0  0  0  0  0  0  0  0  0
    7.7546   -1.4446    0.0000 N   0  0  0  0  0  0  0  0  0  0  0  0
    6.8730   -0.2311    0.0000 N   0  0  0  0  0  0  0  0  0  0  0  0
    7.3365    1.1955    0.0000 C   0  0  0  0  0  0  0  0  0  0  0  0
    6.4548    2.4090    0.0000 N   0  0  0  0  0  0  0  0  0  0  0  0
    7.3365    3.6225    0.0000 N   0  0  0  0  0  0  0  0  0  0  0  0
    8.7631    3.1590    0.0000 N   0  0  0  0  0  0  0  0  0  0  0  0
    8.7631    1.6590    0.0000 N   0  0  0  0  0  0  0  0  0  0  0  0
    9.9766    0.7773    0.0000 C   0  0  0  0  0  0  0  0  0  0  0  0
    9.8198   -0.7145    0.0000 C   0  0  0  0  0  0  0  0  0  0  0  0
   11.0333   -1.5962    0.0000 C   0  0  0  0  0  0  0  0  0  0  0  0
   12.4036   -0.9860    0.0000 C   0  0  0  0  0  0  0  0  0  0  0  0
   12.5604    0.5057    0.0000 C   0  0  0  0  0  0  0  0  0  0  0  0
   11.3469    1.3874    0.0000 C   0  0  0  0  0  0  0  0  0  0  0  0
    1.8058    1.9504    0.0000 C   0  0  0  0  0  0  0  0  0  0  0  0
    0.5923    2.8321    0.0000 C   0  0  0  0  0  0  0  0  0  0  0  0
   -6.3650    3.1235    0.0000 C   0  0  0  0  0  0  0  0  0  0  0  0
   -7.5785    4.0051    0.0000 C   0  0  0  0  0  0  0  0  0  0  0  0
   -7.4217    5.4969    0.0000 C   0  0  0  0  0  0  0  0  0  0  0  0
  1  2  1  0
  2  3  1  0
  3  4  2  0
  4  5  1  0
  5  6  2  0
  6  7  1  0
  7  8  1  0
  8  9  2  0
  9 10  1  0
 10 11  2  0
 11 12  1  0
 12 13  2  0
 13 14  1  0
 14 15  2  0
 15 16  1  0
 16 17  1  0
 17 18  2  0
 18 19  1  0
 19 20  2  0
 20 21  1  0
 21 22  2  0
 21 23  1  0
 23 24  1  0
 24 25  2  0
 25 26  1  0
 26 27  2  0
 27 28  1  0
 28 29  1  0
 29 30  2  0
 30 31  1  0
 31 32  2  0
 32 33  1  0
 33 34  1  0
 34 35  2  0
 35 36  1  0
 36 37  2  0
 37 38  1  0
 38 39  2  0
 20 40  1  0
 40 41  2  0
  6 42  1  0
 42 43  2  0
 43 44  1  0
 43  3  1  0
 11  7  1  0
 16 12  1  0
 41 17  1  0
 28 24  1  0
 33 29  1  0
 39 34  1  0
M  END
>  <Title>  (93) 
idAADOgen8

$$$$

     RDKit          2D

 16 17  0  0  0  0  0  0  0  0999 V2000
   -5.2433    3.8855    0.0000 C   0  0  0  0  0  0  0  0  0  0  0  0
   -3.7531    3.7145    0.0000 C   0  0  0  0  0  0  0  0  0  0  0  0
   -3.1691    5.0962    0.0000 C   0  0  0  0  0  0  0  0  0  0  0  0
   -1.9309    5.9428    0.0000 C   0  0  0  0  0  0  0  0  0  0  0  0
   -0.4316    5.9857    0.0000 N   0  0  0  0  0  0  0  0  0  0  0  0
    0.8530    5.2111    0.0000 N   0  0  0  0  0  0  0  0  0  0  0  0
    1.5148    3.8650    0.0000 N   0  0  0  0  0  0  0  0  0  0  0  0
    1.3438    2.3747    0.0000 N   0  0  0  0  0  0  0  0  0  0  0  0
    0.3943    1.2135    0.0000 C   0  0  0  0  0  0  0  0  0  0  0  0
    1.2760    0.0000    0.0000 C   0  0  0  0  0  0  0  0  0  0  0  0
    0.3943   -1.2135    0.0000 C   0  0  0  0  0  0  0  0  0  0  0  0
   -1.0323   -0.7500    0.0000 C   0  0  0  0  0  0  0  0  0  0  0  0
   -1.0323    0.7500    0.0000 C   0  0  0  0  0  0  0  0  0  0  0  0
   -2.4830    1.1313    0.0000 C   0  0  0  0  0  0  0  0  0  0  0  0
   -3.2576   -0.1532    0.0000 O   0  0  0  0  0  0  0  0  0  0  0  0
   -3.4973    2.2364    0.0000 N   0  0  0  0  0  0  0  0  0  0  0  0
  1  2  1  0
  2  3  2  0
  3  4  1  0
  4  5  2  0
  5  6  1  0
  6  7  2  0
  7  8  1  0
  8  9  2  0
  9 10  1  0
 10 11  2  0
 11 12  1  0
 12 13  2  0
 13 14  1  0
 14 15  2  0
 14 16  1  0
 16  2  1  0
 13  9  1  0
M  END
>  <Title>  (94) 
idAADPgen8

$$$$

     RDKit          2D

 13 14  0  0  0  0  0  0  0  0999 V2000
    0.4276    6.3655    0.0000 N   0  0  0  0  0  0  0  0  0  0  0  0
   -0.1343    4.9747    0.0000 C   0  0  0  0  0  0  0  0  0  0  0  0
    0.9804    3.9710    0.0000 C   0  0  0  0  0  0  0  0  0  0  0  0
    1.1892    2.4856    0.0000 C   0  0  0  0  0  0  0  0  0  0  0  0
    0.3943    1.2135    0.0000 C   0  0  0  0  0  0  0  0  0  0  0  0
    1.2760    0.0000    0.0000 C   0  0  0  0  0  0  0  0  0  0  0  0
    0.3943   -1.2135    0.0000 C   0  0  0  0  0  0  0  0  0  0  0  0
   -1.0323   -0.7500    0.0000 C   0  0  0  0  0  0  0  0  0  0  0  0
   -1.0323    0.7500    0.0000 C   0  0  0  0  0  0  0  0  0  0  0  0
   -2.4231    1.3119    0.0000 C   0  0  0  0  0  0  0  0  0  0  0  0
   -3.1273    2.6363    0.0000 C   0  0  0  0  0  0  0  0  0  0  0  0
   -2.8154    4.1036    0.0000 C   0  0  0  0  0  0  0  0  0  0  0  0
   -1.6334    5.0270    0.0000 C   0  0  0  0  0  0  0  0  0  0  0  0
  1  2  1  0
  2  3  2  0
  3  4  1  0
  4  5  2  0
  5  6  1  0
  6  7  2  0
  7  8  1  0
  8  9  2  0
  9 10  1  0
 10 11  2  0
 11 12  1  0
 12 13  2  0
 13  2  1  0
  9  5  1  0
M  END
>  <Title>  (95) 
idAADQgen8

$$$$

     RDKit          2D

 42 46  0  0  0  0  0  0  0  0999 V2000
    9.4398   -5.9710    0.0000 C   0  0  0  0  0  0  0  0  0  0  0  0
    8.9444   -4.5552    0.0000 C   0  0  0  0  0  0  0  0  0  0  0  0
    7.4538   -4.3872    0.0000 C   0  0  0  0  0  0  0  0  0  0  0  0
    6.6558   -3.1172    0.0000 C   0  0  0  0  0  0  0  0  0  0  0  0
    7.1512   -1.7013    0.0000 C   0  0  0  0  0  0  0  0  0  0  0  0
    6.0905   -0.6407    0.0000 C   0  0  0  0  0  0  0  0  0  0  0  0
    6.3252    0.8409    0.0000 N   0  0  0  0  0  0  0  0  0  0  0  0
    4.9887    1.5219    0.0000 N   0  0  0  0  0  0  0  0  0  0  0  0
    3.9280    0.4612    0.0000 N   0  0  0  0  0  0  0  0  0  0  0  0
    4.6090   -0.8753    0.0000 N   0  0  0  0  0  0  0  0  0  0  0  0
    3.9280   -2.2118    0.0000 C   0  0  0  0  0  0  0  0  0  0  0  0
    4.6090   -3.5483    0.0000 C   0  0  0  0  0  0  0  0  0  0  0  0
    3.5483   -4.6090    0.0000 C   0  0  0  0  0  0  0  0  0  0  0  0
    2.2118   -3.9280    0.0000 C   0  0  0  0  0  0  0  0  0  0  0  0
    2.4465   -2.4465    0.0000 N   0  0  0  0  0  0  0  0  0  0  0  0
    1.3858   -1.3858    0.0000 C   0  0  0  0  0  0  0  0  0  0  0  0
    1.9598    0.0000    0.0000 C   0  0  0  0  0  0  0  0  0  0  0  0
    1.3858    1.3858    0.0000 C   0  0  0  0  0  0  0  0  0  0  0  0
    0.0000    1.9598    0.0000 C   0  0  0  0  0  0  0  0  0  0  0  0
    0.0000    3.4598    0.0000 C   0  0  0  0  0  0  0  0  0  0  0  0
   -1.2990    4.2098    0.0000 O   0  0  0  0  0  0  0  0  0  0  0  0
    1.2990    4.2098    0.0000 N   0  0  0  0  0  0  0  0  0  0  0  0
    1.2990    5.7098    0.0000 O   0  0  0  0  0  0  0  0  0  0  0  0
   -1.3858    1.3858    0.0000 N   0  0  0  0  0  0  0  0  0  0  0  0
   -1.9598    0.0000    0.0000 N   0  0  0  0  0  0  0  0  0  0  0  0
   -1.3858   -1.3858    0.0000 N   0  0  0  0  0  0  0  0  0  0  0  0
   -0.0000   -1.9598    0.0000 C   0  0  0  0  0  0  0  0  0  0  0  0
   -0.0000   -3.4598    0.0000 C   0  0  0  0  0  0  0  0  0  0  0  0
    1.2990   -4.2098    0.0000 C   0  0  0  0  0  0  0  0  0  0  0  0
    1.2990   -5.7098    0.0000 C   0  0  0  0  0  0  0  0  0  0  0  0
   -0.0000   -6.4598    0.0000 C   0  0  0  0  0  0  0  0  0  0  0  0
   -0.0000   -7.9598    0.0000 C   0  0  0  0  0  0  0  0  0  0  0  0
   -1.2990   -8.7098    0.0000 O   0  0  0  0  0  0  0  0  0  0  0  0
    1.2990   -8.7098    0.0000 N   0  0  0  0  0  0  0  0  0  0  0  0
    1.2990  -10.2098    0.0000 O   0  0  0  0  0  0  0  0  0  0  0  0
   -1.2990   -5.7098    0.0000 N   0  0  0  0  0  0  0  0  0  0  0  0
   -1.2990   -4.2098    0.0000 C   0  0  0  0  0  0  0  0  0  0  0  0
   -2.5981   -3.4598    0.0000 O   0  0  0  0  0  0  0  0  0  0  0  0
    8.5670   -1.2059    0.0000 N   0  0  0  0  0  0  0  0  0  0  0  0
    9.8371   -2.0040    0.0000 C   0  0  0  0  0  0  0  0  0  0  0  0
   11.1072   -1.2059    0.0000 O   0  0  0  0  0  0  0  0  0  0  0  0
   10.0050   -3.4945    0.0000 N   0  0  0  0  0  0  0  0  0  0  0  0
  1  2  1  0
  2  3  2  0
  3  4  1  0
  4  5  2  0
  5  6  1  0
  6  7  2  0
  7  8  1  0
  8  9  2  0
  9 10  1  0
 10 11  1  0
 11 12  2  0
 12 13  1  0
 13 14  2  0
 14 15  1  0
 15 16  1  0
 16 17  2  0
 17 18  1  0
 18 19  2  0
 19 20  1  0
 20 21  2  0
 20 22  1  0
 22 23  1  0
 19 24  1  0
 24 25  2  0
 25 26  1  0
 26 27  2  0
 27 28  1  0
 28 29  2  0
 29 30  1  0
 30 31  2  0
 31 32  1  0
 32 33  2  0
 32 34  1  0
 34 35  1  0
 31 36  1  0
 36 37  1  0
 37 38  2  0
  5 39  1  0
 39 40  1  0
 40 41  2  0
 40 42  1  0
 42  2  1  0
 10  6  1  0
 15 11  1  0
 27 16  1  0
 37 28  1  0
M  END
>  <Title>  (96) 
idAADRgen8

$$$$

     RDKit          2D

 49 55  0  0  0  0  0  0  0  0999 V2000
    0.1082   13.6047    0.0000 C   0  0  0  0  0  0  0  0  0  0  0  0
   -1.2621   12.9946    0.0000 C   0  0  0  0  0  0  0  0  0  0  0  0
   -2.4756   13.8763    0.0000 C   0  0  0  0  0  0  0  0  0  0  0  0
   -3.8459   13.2662    0.0000 C   0  0  0  0  0  0  0  0  0  0  0  0
   -4.0027   11.7744    0.0000 C   0  0  0  0  0  0  0  0  0  0  0  0
   -5.3730   11.1643    0.0000 C   0  0  0  0  0  0  0  0  0  0  0  0
   -6.5866   12.0460    0.0000 O   0  0  0  0  0  0  0  0  0  0  0  0
   -5.5298    9.6725    0.0000 N   0  0  0  0  0  0  0  0  0  0  0  0
   -6.9002    9.0624    0.0000 C   0  0  0  0  0  0  0  0  0  0  0  0
   -8.1992    9.8124    0.0000 N   0  0  0  0  0  0  0  0  0  0  0  0
   -9.3139    8.8087    0.0000 N   0  0  0  0  0  0  0  0  0  0  0  0
   -8.7038    7.4384    0.0000 N   0  0  0  0  0  0  0  0  0  0  0  0
   -7.2120    7.5952    0.0000 N   0  0  0  0  0  0  0  0  0  0  0  0
   -6.2083    6.4805    0.0000 C   0  0  0  0  0  0  0  0  0  0  0  0
   -4.7411    6.7923    0.0000 C   0  0  0  0  0  0  0  0  0  0  0  0
   -3.7374    5.6776    0.0000 C   0  0  0  0  0  0  0  0  0  0  0  0
   -4.2009    4.2510    0.0000 C   0  0  0  0  0  0  0  0  0  0  0  0
   -5.6682    3.9391    0.0000 C   0  0  0  0  0  0  0  0  0  0  0  0
   -6.6718    5.0539    0.0000 C   0  0  0  0  0  0  0  0  0  0  0  0
   -8.1391    4.7420    0.0000 C   0  0  0  0  0  0  0  0  0  0  0  0
   -9.1428    5.8567    0.0000 C   0  0  0  0  0  0  0  0  0  0  0  0
  -10.6100    5.5448    0.0000 C   0  0  0  0  0  0  0  0  0  0  0  0
  -11.0735    4.1183    0.0000 C   0  0  0  0  0  0  0  0  0  0  0  0
  -12.5407    3.8064    0.0000 C   0  0  0  0  0  0  0  0  0  0  0  0
  -13.0043    2.3798    0.0000 O   0  0  0  0  0  0  0  0  0  0  0  0
  -13.5444    4.9211    0.0000 N   0  0  0  0  0  0  0  0  0  0  0  0
  -15.0117    4.6092    0.0000 C   0  0  0  0  0  0  0  0  0  0  0  0
  -15.6218    3.2389    0.0000 N   0  0  0  0  0  0  0  0  0  0  0  0
  -17.1135    3.3957    0.0000 N   0  0  0  0  0  0  0  0  0  0  0  0
  -17.4254    4.8629    0.0000 N   0  0  0  0  0  0  0  0  0  0  0  0
  -16.1264    5.6129    0.0000 N   0  0  0  0  0  0  0  0  0  0  0  0
  -15.9696    7.1047    0.0000 C   0  0  0  0  0  0  0  0  0  0  0  0
  -14.5993    7.7148    0.0000 C   0  0  0  0  0  0  0  0  0  0  0  0
  -14.4425    9.2066    0.0000 C   0  0  0  0  0  0  0  0  0  0  0  0
  -15.6560   10.0883    0.0000 C   0  0  0  0  0  0  0  0  0  0  0  0
  -17.0263    9.4782    0.0000 C   0  0  0  0  0  0  0  0  0  0  0  0
  -17.1831    7.9864    0.0000 C   0  0  0  0  0  0  0  0  0  0  0  0
  -10.0698    3.0035    0.0000 C   0  0  0  0  0  0  0  0  0  0  0  0
   -8.6026    3.3154    0.0000 C   0  0  0  0  0  0  0  0  0  0  0  0
   -7.5989    2.2007    0.0000 C   0  0  0  0  0  0  0  0  0  0  0  0
   -8.0624    0.7741    0.0000 C   0  0  0  0  0  0  0  0  0  0  0  0
   -7.0587   -0.3406    0.0000 C   0  0  0  0  0  0  0  0  0  0  0  0
   -5.5915   -0.0287    0.0000 C   0  0  0  0  0  0  0  0  0  0  0  0
   -4.5878   -1.1435    0.0000 C   0  0  0  0  0  0  0  0  0  0  0  0
   -5.1280    1.3978    0.0000 C   0  0  0  0  0  0  0  0  0  0  0  0
   -3.6608    1.7097    0.0000 O   0  0  0  0  0  0  0  0  0  0  0  0
   -6.1317    2.5126    0.0000 N   0  0  0  0  0  0  0  0  0  0  0  0
   -2.7892   10.8927    0.0000 N   0  0  0  0  0  0  0  0  0  0  0  0
   -1.4189   11.5028    0.0000 C   0  0  0  0  0  0  0  0  0  0  0  0
  1  2  1  0
  2  3  2  0
  3  4  1  0
  4  5  2  0
  5  6  1  0
  6  7  2  0
  6  8  1  0
  8  9  1  0
  9 10  2  0
 10 11  1  0
 11 12  2  0
 12 13  1  0
 13 14  1  0
 14 15  2  0
 15 16  1  0
 16 17  2  0
 17 18  1  0
 18 19  2  0
 19 20  1  0
 20 21  2  0
 21 22  1  0
 22 23  2  0
 23 24  1  0
 24 25  2  0
 24 26  1  0
 26 27  1  0
 27 28  2  0
 28 29  1  0
 29 30  2  0
 30 31  1  0
 31 32  1  0
 32 33  2  0
 33 34  1  0
 34 35  2  0
 35 36  1  0
 36 37  2  0
 23 38  1  0
 38 39  2  0
 39 40  1  0
 40 41  2  0
 41 42  1  0
 42 43  2  0
 43 44  1  0
 43 45  1  0
 45 46  2  0
 45 47  1  0
  5 48  1  0
 48 49  1  0
 49  2  1  0
 13  9  1  0
 19 14  1  0
 39 20  1  0
 47 40  1  0
 31 27  1  0
 37 32  1  0
M  END
>  <Title>  (97) 
idAADSgen8

$$$$

     RDKit          2D

 20 22  0  0  0  0  0  0  0  0999 V2000
    3.0000    0.0000    0.0000 C   0  0  0  0  0  0  0  0  0  0  0  0
    1.5000    0.0000    0.0000 C   0  0  0  0  0  0  0  0  0  0  0  0
    0.7500   -1.2990    0.0000 C   0  0  0  0  0  0  0  0  0  0  0  0
   -0.7500   -1.2990    0.0000 C   0  0  0  0  0  0  0  0  0  0  0  0
   -1.5000    0.0000    0.0000 C   0  0  0  0  0  0  0  0  0  0  0  0
   -3.0000    0.0000    0.0000 C   0  0  0  0  0  0  0  0  0  0  0  0
   -3.8817   -1.2135    0.0000 N   0  0  0  0  0  0  0  0  0  0  0  0
   -5.3083   -0.7500    0.0000 N   0  0  0  0  0  0  0  0  0  0  0  0
   -5.3083    0.7500    0.0000 N   0  0  0  0  0  0  0  0  0  0  0  0
   -3.8817    1.2135    0.0000 N   0  0  0  0  0  0  0  0  0  0  0  0
   -3.4182    2.6401    0.0000 C   0  0  0  0  0  0  0  0  0  0  0  0
   -1.9509    2.9520    0.0000 C   0  0  0  0  0  0  0  0  0  0  0  0
   -1.4874    4.3786    0.0000 C   0  0  0  0  0  0  0  0  0  0  0  0
   -2.4911    5.4933    0.0000 C   0  0  0  0  0  0  0  0  0  0  0  0
   -2.0276    6.9199    0.0000 C   0  0  0  0  0  0  0  0  0  0  0  0
   -3.9583    5.1814    0.0000 C   0  0  0  0  0  0  0  0  0  0  0  0
   -4.9620    6.2961    0.0000 O   0  0  0  0  0  0  0  0  0  0  0  0
   -4.4218    3.7548    0.0000 N   0  0  0  0  0  0  0  0  0  0  0  0
   -0.7500    1.2990    0.0000 C   0  0  0  0  0  0  0  0  0  0  0  0
    0.7500    1.2990    0.0000 C   0  0  0  0  0  0  0  0  0  0  0  0
  1  2  1  0
  2  3  2  0
  3  4  1  0
  4  5  2  0
  5  6  1  0
  6  7  2  0
  7  8  1  0
  8  9  2  0
  9 10  1  0
 10 11  1  0
 11 12  2  0
 12 13  1  0
 13 14  2  0
 14 15  1  0
 14 16  1  0
 16 17  2  0
 16 18  1  0
  5 19  1  0
 19 20  2  0
 20  2  1  0
 10  6  1  0
 18 11  1  0
M  END
>  <Title>  (98) 
idAADTgen8

$$$$

     RDKit          2D

 59 67  0  0  0  0  0  0  0  0999 V2000
    3.0000    0.0000    0.0000 C   0  0  0  0  0  0  0  0  0  0  0  0
    1.5000    0.0000    0.0000 C   0  0  0  0  0  0  0  0  0  0  0  0
    0.7500   -1.2990    0.0000 C   0  0  0  0  0  0  0  0  0  0  0  0
   -0.7500   -1.2990    0.0000 C   0  0  0  0  0  0  0  0  0  0  0  0
   -1.5000    0.0000    0.0000 C   0  0  0  0  0  0  0  0  0  0  0  0
   -3.0000    0.0000    0.0000 C   0  0  0  0  0  0  0  0  0  0  0  0
   -3.7500    1.2990    0.0000 C   0  0  0  0  0  0  0  0  0  0  0  0
   -5.2500    1.2990    0.0000 C   0  0  0  0  0  0  0  0  0  0  0  0
   -6.0000    2.5981    0.0000 C   0  0  0  0  0  0  0  0  0  0  0  0
   -7.4918    2.7549    0.0000 C   0  0  0  0  0  0  0  0  0  0  0  0
   -7.8037    4.2221    0.0000 N   0  0  0  0  0  0  0  0  0  0  0  0
   -6.5046    4.9721    0.0000 N   0  0  0  0  0  0  0  0  0  0  0  0
   -5.3899    3.9684    0.0000 N   0  0  0  0  0  0  0  0  0  0  0  0
   -3.9227    4.2803    0.0000 C   0  0  0  0  0  0  0  0  0  0  0  0
   -2.9190    3.1655    0.0000 C   0  0  0  0  0  0  0  0  0  0  0  0
   -1.4518    3.4774    0.0000 C   0  0  0  0  0  0  0  0  0  0  0  0
   -0.9882    4.9040    0.0000 C   0  0  0  0  0  0  0  0  0  0  0  0
   -1.9919    6.0187    0.0000 C   0  0  0  0  0  0  0  0  0  0  0  0
   -3.4591    5.7068    0.0000 C   0  0  0  0  0  0  0  0  0  0  0  0
   -6.0000    0.0000    0.0000 C   0  0  0  0  0  0  0  0  0  0  0  0
   -5.2500   -1.2990    0.0000 C   0  0  0  0  0  0  0  0  0  0  0  0
   -3.7500   -1.2990    0.0000 C   0  0  0  0  0  0  0  0  0  0  0  0
   -3.0000   -2.5981    0.0000 N   0  0  0  0  0  0  0  0  0  0  0  0
   -1.5082   -2.7549    0.0000 N   0  0  0  0  0  0  0  0  0  0  0  0
   -1.1963   -4.2221    0.0000 N   0  0  0  0  0  0  0  0  0  0  0  0
   -2.4954   -4.9721    0.0000 N   0  0  0  0  0  0  0  0  0  0  0  0
   -3.6101   -3.9684    0.0000 C   0  0  0  0  0  0  0  0  0  0  0  0
   -5.0773   -4.2803    0.0000 N   0  0  0  0  0  0  0  0  0  0  0  0
   -5.5409   -5.7068    0.0000 C   0  0  0  0  0  0  0  0  0  0  0  0
   -4.5372   -6.8216    0.0000 O   0  0  0  0  0  0  0  0  0  0  0  0
   -7.0081   -6.0187    0.0000 C   0  0  0  0  0  0  0  0  0  0  0  0
   -8.0118   -4.9040    0.0000 C   0  0  0  0  0  0  0  0  0  0  0  0
   -9.4790   -5.2159    0.0000 C   0  0  0  0  0  0  0  0  0  0  0  0
   -9.9425   -6.6424    0.0000 C   0  0  0  0  0  0  0  0  0  0  0  0
  -11.4097   -6.9543    0.0000 C   0  0  0  0  0  0  0  0  0  0  0  0
   -8.9388   -7.7572    0.0000 C   0  0  0  0  0  0  0  0  0  0  0  0
   -9.3613   -8.4332    0.0000 O   0  0  0  0  0  0  0  0  0  0  0  0
   -7.4716   -7.4453    0.0000 N   0  0  0  0  0  0  0  0  0  0  0  0
   -6.4679   -8.5600    0.0000 N   0  0  0  0  0  0  0  0  0  0  0  0
   -5.0007   -8.2481    0.0000 C   0  0  0  0  0  0  0  0  0  0  0  0
   -3.9970   -9.3629    0.0000 C   0  0  0  0  0  0  0  0  0  0  0  0
   -4.4605  -10.7895    0.0000 C   0  0  0  0  0  0  0  0  0  0  0  0
   -5.9277  -11.1013    0.0000 C   0  0  0  0  0  0  0  0  0  0  0  0
   -6.9314   -9.9866    0.0000 C   0  0  0  0  0  0  0  0  0  0  0  0
   -8.3986  -10.2985    0.0000 C   0  0  0  0  0  0  0  0  0  0  0  0
   -9.5134   -9.2948    0.0000 C   0  0  0  0  0  0  0  0  0  0  0  0
  -10.8124  -10.0448    0.0000 C   0  0  0  0  0  0  0  0  0  0  0  0
  -10.5005  -11.5120    0.0000 C   0  0  0  0  0  0  0  0  0  0  0  0
  -11.5042  -12.6267    0.0000 C   0  0  0  0  0  0  0  0  0  0  0  0
  -11.0407  -14.0533    0.0000 C   0  0  0  0  0  0  0  0  0  0  0  0
  -12.0444  -15.1680    0.0000 C   0  0  0  0  0  0  0  0  0  0  0  0
  -13.5116  -14.8561    0.0000 C   0  0  0  0  0  0  0  0  0  0  0  0
  -13.9752  -13.4296    0.0000 C   0  0  0  0  0  0  0  0  0  0  0  0
  -12.9715  -12.3148    0.0000 C   0  0  0  0  0  0  0  0  0  0  0  0
   -9.0088  -11.6688    0.0000 C   0  0  0  0  0  0  0  0  0  0  0  0
   -8.2588  -12.9678    0.0000 O   0  0  0  0  0  0  0  0  0  0  0  0
   -0.7500    1.2990    0.0000 N   0  0  0  0  0  0  0  0  0  0  0  0
    0.7500    1.2990    0.0000 C   0  0  0  0  0  0  0  0  0  0  0  0
    1.5000    2.5981    0.0000 O   0  0  0  0  0  0  0  0  0  0  0  0
  1  2  1  0
  2  3  2  0
  3  4  1  0
  4  5  2  0
  5  6  1  0
  6  7  2  0
  7  8  1  0
  8  9  1  0
  9 10  2  0
 10 11  1  0
 11 12  2  0
 12 13  1  0
 13 14  1  0
 14 15  2  0
 15 16  1  0
 16 17  2  0
 17 18  1  0
 18 19  2  0
  8 20  2  0
 20 21  1  0
 21 22  2  0
 22 23  1  0
 23 24  1  0
 24 25  2  0
 25 26  1  0
 26 27  2  0
 27 28  1  0
 28 29  1  0
 29 30  2  0
 29 31  1  0
 31 32  2  0
 32 33  1  0
 33 34  2  0
 34 35  1  0
 34 36  1  0
 36 37  2  0
 36 38  1  0
 38 39  1  0
 39 40  1  0
 40 41  1  0
 41 42  1  0
 42 43  1  0
 43 44  1  0
 44 45  1  0
 45 46  2  0
 46 47  1  0
 47 48  2  0
 48 49  1  0
 49 50  2  0
 50 51  1  0
 51 52  2  0
 52 53  1  0
 53 54  2  0
 48 55  1  0
 55 56  2  0
  5 57  1  0
 57 58  1  0
 58 59  2  0
 58  2  1  0
 22  6  1  0
 27 23  1  0
 38 31  1  0
 44 39  1  0
 55 45  1  0
 13  9  1  0
 19 14  1  0
 54 49  1  0
M  END
>  <Title>  (99) 
idAADUgen8

$$$$

     RDKit          2D

 24 26  0  0  0  0  0  0  0  0999 V2000
    3.7500   -1.2990    0.0000 C   0  0  0  0  0  0  0  0  0  0  0  0
    3.0000    0.0000    0.0000 O   0  0  0  0  0  0  0  0  0  0  0  0
    1.5000    0.0000    0.0000 C   0  0  0  0  0  0  0  0  0  0  0  0
    0.7500   -1.2990    0.0000 C   0  0  0  0  0  0  0  0  0  0  0  0
   -0.7500   -1.2990    0.0000 C   0  0  0  0  0  0  0  0  0  0  0  0
   -1.5000    0.0000    0.0000 C   0  0  0  0  0  0  0  0  0  0  0  0
   -3.0000    0.0000    0.0000 C   0  0  0  0  0  0  0  0  0  0  0  0
   -3.8817   -1.2135    0.0000 N   0  0  0  0  0  0  0  0  0  0  0  0
   -5.3083   -0.7500    0.0000 N   0  0  0  0  0  0  0  0  0  0  0  0
   -5.3083    0.7500    0.0000 N   0  0  0  0  0  0  0  0  0  0  0  0
   -3.8817    1.2135    0.0000 N   0  0  0  0  0  0  0  0  0  0  0  0
   -3.4182    2.6401    0.0000 C   0  0  0  0  0  0  0  0  0  0  0  0
   -1.9509    2.9520    0.0000 C   0  0  0  0  0  0  0  0  0  0  0  0
   -1.4874    4.3786    0.0000 C   0  0  0  0  0  0  0  0  0  0  0  0
   -2.4911    5.4933    0.0000 C   0  0  0  0  0  0  0  0  0  0  0  0
   -2.0276    6.9199    0.0000 C   0  0  0  0  0  0  0  0  0  0  0  0
   -3.0313    8.0346    0.0000 O   0  0  0  0  0  0  0  0  0  0  0  0
   -0.5604    7.2317    0.0000 N   0  0  0  0  0  0  0  0  0  0  0  0
   -0.0968    8.6583    0.0000 O   0  0  0  0  0  0  0  0  0  0  0  0
   -3.9583    5.1814    0.0000 N   0  0  0  0  0  0  0  0  0  0  0  0
   -4.4218    3.7548    0.0000 C   0  0  0  0  0  0  0  0  0  0  0  0
   -5.8891    3.4430    0.0000 O   0  0  0  0  0  0  0  0  0  0  0  0
   -0.7500    1.2990    0.0000 C   0  0  0  0  0  0  0  0  0  0  0  0
    0.7500    1.2990    0.0000 C   0  0  0  0  0  0  0  0  0  0  0  0
  1  2  1  0
  2  3  1  0
  3  4  2  0
  4  5  1  0
  5  6  2  0
  6  7  1  0
  7  8  2  0
  8  9  1  0
  9 10  2  0
 10 11  1  0
 11 12  1  0
 12 13  2  0
 13 14  1  0
 14 15  2  0
 15 16  1  0
 16 17  2  0
 16 18  1  0
 18 19  1  0
 15 20  1  0
 20 21  1  0
 21 22  2  0
  6 23  1  0
 23 24  2  0
 24  3  1  0
 11  7  1  0
 21 12  1  0
M  END
>  <Title>  (100) 
idAADVgen8

$$$$

     RDKit          2D

 23 25  0  0  0  0  0  0  0  0999 V2000
    3.0000    0.0000    0.0000 C   0  0  0  0  0  0  0  0  0  0  0  0
    1.5000    0.0000    0.0000 C   0  0  0  0  0  0  0  0  0  0  0  0
    0.7500   -1.2990    0.0000 C   0  0  0  0  0  0  0  0  0  0  0  0
   -0.7500   -1.2990    0.0000 C   0  0  0  0  0  0  0  0  0  0  0  0
   -1.5000    0.0000    0.0000 C   0  0  0  0  0  0  0  0  0  0  0  0
   -3.0000    0.0000    0.0000 N   0  0  0  0  0  0  0  0  0  0  0  0
   -3.7500    1.2990    0.0000 N   0  0  0  0  0  0  0  0  0  0  0  0
   -5.2500    1.2990    0.0000 N   0  0  0  0  0  0  0  0  0  0  0  0
   -6.0000    0.0000    0.0000 N   0  0  0  0  0  0  0  0  0  0  0  0
   -5.2500   -1.2990    0.0000 N   0  0  0  0  0  0  0  0  0  0  0  0
   -3.7500   -1.2990    0.0000 N   0  0  0  0  0  0  0  0  0  0  0  0
   -3.0000   -2.5981    0.0000 C   0  0  0  0  0  0  0  0  0  0  0  0
   -3.7500   -3.8971    0.0000 C   0  0  0  0  0  0  0  0  0  0  0  0
   -3.0000   -5.1962    0.0000 C   0  0  0  0  0  0  0  0  0  0  0  0
   -1.5000   -5.1962    0.0000 C   0  0  0  0  0  0  0  0  0  0  0  0
   -0.7500   -6.4952    0.0000 C   0  0  0  0  0  0  0  0  0  0  0  0
    0.7500   -6.4952    0.0000 O   0  0  0  0  0  0  0  0  0  0  0  0
   -1.5000   -7.7942    0.0000 N   0  0  0  0  0  0  0  0  0  0  0  0
   -0.7500   -9.0933    0.0000 O   0  0  0  0  0  0  0  0  0  0  0  0
   -0.7500   -3.8971    0.0000 C   0  0  0  0  0  0  0  0  0  0  0  0
   -1.5000   -2.5981    0.0000 C   0  0  0  0  0  0  0  0  0  0  0  0
   -0.7500    1.2990    0.0000 C   0  0  0  0  0  0  0  0  0  0  0  0
    0.7500    1.2990    0.0000 C   0  0  0  0  0  0  0  0  0  0  0  0
  1  2  1  0
  2  3  2  0
  3  4  1  0
  4  5  2  0
  5  6  1  0
  6  7  1  0
  7  8  2  0
  8  9  1  0
  9 10  2  0
 10 11  1  0
 11 12  1  0
 12 13  2  0
 13 14  1  0
 14 15  2  0
 15 16  1  0
 16 17  2  0
 16 18  1  0
 18 19  1  0
 15 20  1  0
 20 21  1  0
  5 22  1  0
 22 23  2  0
 23  2  1  0
 11  6  1  0
 21 12  1  0
M  END
>  <Title>  (101) 
idAADWgen8

$$$$

     RDKit          2D

 17 17  0  0  0  0  0  0  0  0999 V2000
    5.6205   -1.2990    0.0000 C   0  0  0  0  0  0  0  0  0  0  0  0
    4.8705    0.0000    0.0000 O   0  0  0  0  0  0  0  0  0  0  0  0
    3.3705    0.0000    0.0000 C   0  0  0  0  0  0  0  0  0  0  0  0
    3.0367   -1.4624    0.0000 C   0  0  0  0  0  0  0  0  0  0  0  0
    2.1015   -2.6351    0.0000 C   0  0  0  0  0  0  0  0  0  0  0  0
    0.7500   -3.2860    0.0000 C   0  0  0  0  0  0  0  0  0  0  0  0
   -0.7500   -3.2860    0.0000 C   0  0  0  0  0  0  0  0  0  0  0  0
   -2.1015   -2.6351    0.0000 C   0  0  0  0  0  0  0  0  0  0  0  0
   -3.0367   -1.4624    0.0000 C   0  0  0  0  0  0  0  0  0  0  0  0
   -3.3705    0.0000    0.0000 C   0  0  0  0  0  0  0  0  0  0  0  0
   -3.0367    1.4624    0.0000 C   0  0  0  0  0  0  0  0  0  0  0  0
   -2.1015    2.6351    0.0000 C   0  0  0  0  0  0  0  0  0  0  0  0
   -0.7500    3.2860    0.0000 C   0  0  0  0  0  0  0  0  0  0  0  0
    0.7500    3.2860    0.0000 C   0  0  0  0  0  0  0  0  0  0  0  0
    2.1015    2.6351    0.0000 C   0  0  0  0  0  0  0  0  0  0  0  0
    3.0367    1.4624    0.0000 C   0  0  0  0  0  0  0  0  0  0  0  0
    4.3881    2.1132    0.0000 C   0  0  0  0  0  0  0  0  0  0  0  0
  1  2  1  0
  2  3  1  0
  3  4  2  0
  4  5  1  0
  5  6  2  0
  6  7  1  0
  7  8  2  0
  8  9  1  0
  9 10  2  0
 10 11  1  0
 11 12  2  0
 12 13  1  0
 13 14  2  0
 14 15  1  0
 15 16  2  0
 16 17  1  0
 16  3  1  0
M  END
>  <Title>  (102) 
idAADXgen8

$$$$

     RDKit          2D

 20 21  0  0  0  0  0  0  0  0999 V2000
   13.0906    4.1423    0.0000 C   0  0  0  0  0  0  0  0  0  0  0  0
   11.5933    4.0526    0.0000 O   0  0  0  0  0  0  0  0  0  0  0  0
   10.7669    5.3045    0.0000 C   0  0  0  0  0  0  0  0  0  0  0  0
   11.2940    6.7088    0.0000 N   0  0  0  0  0  0  0  0  0  0  0  0
   10.1212    7.6440    0.0000 N   0  0  0  0  0  0  0  0  0  0  0  0
    8.8694    6.8177    0.0000 N   0  0  0  0  0  0  0  0  0  0  0  0
    9.2684    5.3718    0.0000 N   0  0  0  0  0  0  0  0  0  0  0  0
    8.3332    4.1990    0.0000 C   0  0  0  0  0  0  0  0  0  0  0  0
    6.8499    4.4226    0.0000 C   0  0  0  0  0  0  0  0  0  0  0  0
    5.9147    3.2498    0.0000 C   0  0  0  0  0  0  0  0  0  0  0  0
    4.4315    3.4734    0.0000 C   0  0  0  0  0  0  0  0  0  0  0  0
    3.4962    2.3006    0.0000 C   0  0  0  0  0  0  0  0  0  0  0  0
    2.0130    2.5242    0.0000 C   0  0  0  0  0  0  0  0  0  0  0  0
    1.0777    1.3515    0.0000 C   0  0  0  0  0  0  0  0  0  0  0  0
    1.7286    0.0000    0.0000 C   0  0  0  0  0  0  0  0  0  0  0  0
    1.0777   -1.3515    0.0000 C   0  0  0  0  0  0  0  0  0  0  0  0
   -0.3846   -1.6852    0.0000 C   0  0  0  0  0  0  0  0  0  0  0  0
   -1.5574   -0.7500    0.0000 C   0  0  0  0  0  0  0  0  0  0  0  0
   -1.5574    0.7500    0.0000 C   0  0  0  0  0  0  0  0  0  0  0  0
   -0.3846    1.6852    0.0000 O   0  0  0  0  0  0  0  0  0  0  0  0
  1  2  1  0
  2  3  1  0
  3  4  2  0
  4  5  1  0
  5  6  2  0
  6  7  1  0
  7  8  1  0
  8  9  1  0
  9 10  1  0
 10 11  1  0
 11 12  1  0
 12 13  1  0
 13 14  1  0
 14 15  1  0
 15 16  2  0
 16 17  1  0
 17 18  2  0
 18 19  1  0
 19 20  1  0
  7  3  1  0
 20 14  1  0
M  END
>  <Title>  (103) 
idAADYgen8

$$$$

     RDKit          2D

 35 40  0  0  0  0  0  0  0  0999 V2000
    3.0000    0.0000    0.0000 C   0  0  0  0  0  0  0  0  0  0  0  0
    1.5000    0.0000    0.0000 C   0  0  0  0  0  0  0  0  0  0  0  0
    0.7500    1.2990    0.0000 C   0  0  0  0  0  0  0  0  0  0  0  0
   -0.7500    1.2990    0.0000 C   0  0  0  0  0  0  0  0  0  0  0  0
   -1.5000    0.0000    0.0000 C   0  0  0  0  0  0  0  0  0  0  0  0
   -3.0000    0.0000    0.0000 C   0  0  0  0  0  0  0  0  0  0  0  0
   -3.8817   -1.2135    0.0000 N   0  0  0  0  0  0  0  0  0  0  0  0
   -5.3083   -0.7500    0.0000 N   0  0  0  0  0  0  0  0  0  0  0  0
   -5.3083    0.7500    0.0000 N   0  0  0  0  0  0  0  0  0  0  0  0
   -3.8817    1.2135    0.0000 N   0  0  0  0  0  0  0  0  0  0  0  0
   -3.4182    2.6401    0.0000 C   0  0  0  0  0  0  0  0  0  0  0  0
   -4.2998    3.8536    0.0000 C   0  0  0  0  0  0  0  0  0  0  0  0
   -3.4182    5.0672    0.0000 C   0  0  0  0  0  0  0  0  0  0  0  0
   -1.9916    4.6036    0.0000 C   0  0  0  0  0  0  0  0  0  0  0  0
   -0.7780    5.4853    0.0000 C   0  0  0  0  0  0  0  0  0  0  0  0
    0.6485    5.0218    0.0000 C   0  0  0  0  0  0  0  0  0  0  0  0
    1.5302    6.2353    0.0000 N   0  0  0  0  0  0  0  0  0  0  0  0
    0.6485    7.4488    0.0000 N   0  0  0  0  0  0  0  0  0  0  0  0
   -0.7780    6.9853    0.0000 N   0  0  0  0  0  0  0  0  0  0  0  0
   -1.9916    7.8670    0.0000 C   0  0  0  0  0  0  0  0  0  0  0  0
   -3.3619    7.2569    0.0000 C   0  0  0  0  0  0  0  0  0  0  0  0
   -4.5754    8.1386    0.0000 C   0  0  0  0  0  0  0  0  0  0  0  0
   -4.4186    9.6303    0.0000 C   0  0  0  0  0  0  0  0  0  0  0  0
   -3.0483   10.2405    0.0000 N   0  0  0  0  0  0  0  0  0  0  0  0
   -1.8348    9.3588    0.0000 C   0  0  0  0  0  0  0  0  0  0  0  0
   -0.4645    9.9689    0.0000 C   0  0  0  0  0  0  0  0  0  0  0  0
    0.8346    9.2189    0.0000 N   0  0  0  0  0  0  0  0  0  0  0  0
    1.9493   10.2226    0.0000 N   0  0  0  0  0  0  0  0  0  0  0  0
    1.3392   11.5929    0.0000 N   0  0  0  0  0  0  0  0  0  0  0  0
   -0.1526   11.4361    0.0000 N   0  0  0  0  0  0  0  0  0  0  0  0
   -1.9916    3.1036    0.0000 C   0  0  0  0  0  0  0  0  0  0  0  0
   -0.7780    2.2220    0.0000 O   0  0  0  0  0  0  0  0  0  0  0  0
   -0.7500   -1.2990    0.0000 N   0  0  0  0  0  0  0  0  0  0  0  0
    0.7500   -1.2990    0.0000 C   0  0  0  0  0  0  0  0  0  0  0  0
    1.5000   -2.5981    0.0000 O   0  0  0  0  0  0  0  0  0  0  0  0
  1  2  1  0
  2  3  2  0
  3  4  1  0
  4  5  2  0
  5  6  1  0
  6  7  2  0
  7  8  1  0
  8  9  2  0
  9 10  1  0
 10 11  1  0
 11 12  2  0
 12 13  1  0
 13 14  2  0
 14 15  1  0
 15 16  2  0
 16 17  1  0
 17 18  2  0
 18 19  1  0
 19 20  1  0
 20 21  2  0
 21 22  1  0
 22 23  2  0
 23 24  1  0
 24 25  2  0
 25 26  1  0
 26 27  2  0
 27 28  1  0
 28 29  2  0
 29 30  1  0
 14 31  1  0
 31 32  2  0
  5 33  1  0
 33 34  1  0
 34 35  2  0
 34  2  1  0
 10  6  1  0
 31 11  1  0
 19 15  1  0
 25 20  1  0
 30 26  1  0
M  END
>  <Title>  (104) 
idAADZgen8

$$$$

     RDKit          2D

 28 28  0  0  0  0  0  0  0  0999 V2000
    7.7222    0.0000    0.0000 C   0  0  0  0  0  0  0  0  0  0  0  0
    6.2222    0.0000    0.0000 C   0  0  0  0  0  0  0  0  0  0  0  0
    6.0414   -1.4891    0.0000 C   0  0  0  0  0  0  0  0  0  0  0  0
    5.5095   -2.8916    0.0000 C   0  0  0  0  0  0  0  0  0  0  0  0
    4.6574   -4.1261    0.0000 C   0  0  0  0  0  0  0  0  0  0  0  0
    3.5346   -5.1207    0.0000 C   0  0  0  0  0  0  0  0  0  0  0  0
    2.2064   -5.8178    0.0000 C   0  0  0  0  0  0  0  0  0  0  0  0
    0.7500   -6.1768    0.0000 C   0  0  0  0  0  0  0  0  0  0  0  0
   -0.7500   -6.1768    0.0000 C   0  0  0  0  0  0  0  0  0  0  0  0
   -2.2064   -5.8178    0.0000 C   0  0  0  0  0  0  0  0  0  0  0  0
   -3.5346   -5.1207    0.0000 C   0  0  0  0  0  0  0  0  0  0  0  0
   -4.6574   -4.1261    0.0000 C   0  0  0  0  0  0  0  0  0  0  0  0
   -5.5095   -2.8916    0.0000 C   0  0  0  0  0  0  0  0  0  0  0  0
   -6.0414   -1.4891    0.0000 C   0  0  0  0  0  0  0  0  0  0  0  0
   -6.2222    0.0000    0.0000 C   0  0  0  0  0  0  0  0  0  0  0  0
   -6.0414    1.4891    0.0000 C   0  0  0  0  0  0  0  0  0  0  0  0
   -5.5095    2.8916    0.0000 C   0  0  0  0  0  0  0  0  0  0  0  0
   -4.6574    4.1261    0.0000 C   0  0  0  0  0  0  0  0  0  0  0  0
   -3.5346    5.1207    0.0000 C   0  0  0  0  0  0  0  0  0  0  0  0
   -2.2064    5.8178    0.0000 C   0  0  0  0  0  0  0  0  0  0  0  0
   -0.7500    6.1768    0.0000 C   0  0  0  0  0  0  0  0  0  0  0  0
    0.7500    6.1768    0.0000 C   0  0  0  0  0  0  0  0  0  0  0  0
    2.2064    5.8178    0.0000 C   0  0  0  0  0  0  0  0  0  0  0  0
    3.5346    5.1207    0.0000 C   0  0  0  0  0  0  0  0  0  0  0  0
    4.6574    4.1261    0.0000 C   0  0  0  0  0  0  0  0  0  0  0  0
    5.5095    2.8916    0.0000 C   0  0  0  0  0  0  0  0  0  0  0  0
    6.0414    1.4891    0.0000 C   0  0  0  0  0  0  0  0  0  0  0  0
    7.4978    1.8480    0.0000 O   0  0  0  0  0  0  0  0  0  0  0  0
  1  2  1  0
  2  3  2  0
  3  4  1  0
  4  5  2  0
  5  6  1  0
  6  7  2  0
  7  8  1  0
  8  9  2  0
  9 10  1  0
 10 11  2  0
 11 12  1  0
 12 13  2  0
 13 14  1  0
 14 15  2  0
 15 16  1  0
 16 17  2  0
 17 18  1  0
 18 19  2  0
 19 20  1  0
 20 21  2  0
 21 22  1  0
 22 23  2  0
 23 24  1  0
 24 25  2  0
 25 26  1  0
 26 27  2  0
 27 28  1  0
 27  2  1  0
M  END
>  <Title>  (105) 
idAAEAgen8

$$$$

     RDKit          2D

 53 60  0  0  0  0  0  0  0  0999 V2000
   12.2601   -1.3287    0.0000 C   0  0  0  0  0  0  0  0  0  0  0  0
   11.1915   -0.2760    0.0000 C   0  0  0  0  0  0  0  0  0  0  0  0
   11.5689    1.1757    0.0000 C   0  0  0  0  0  0  0  0  0  0  0  0
   10.5003    2.2284    0.0000 C   0  0  0  0  0  0  0  0  0  0  0  0
    9.0544    1.8293    0.0000 C   0  0  0  0  0  0  0  0  0  0  0  0
    7.9858    2.8820    0.0000 C   0  0  0  0  0  0  0  0  0  0  0  0
    8.2094    4.3653    0.0000 N   0  0  0  0  0  0  0  0  0  0  0  0
    6.8678    5.0363    0.0000 N   0  0  0  0  0  0  0  0  0  0  0  0
    5.8151    3.9677    0.0000 N   0  0  0  0  0  0  0  0  0  0  0  0
    6.5061    2.6363    0.0000 N   0  0  0  0  0  0  0  0  0  0  0  0
    5.8351    1.2947    0.0000 C   0  0  0  0  0  0  0  0  0  0  0  0
    6.6615    0.0429    0.0000 C   0  0  0  0  0  0  0  0  0  0  0  0
    5.9905   -1.2987    0.0000 C   0  0  0  0  0  0  0  0  0  0  0  0
    4.4932   -1.3884    0.0000 C   0  0  0  0  0  0  0  0  0  0  0  0
    3.6668   -0.1365    0.0000 C   0  0  0  0  0  0  0  0  0  0  0  0
    4.3378    1.2050    0.0000 C   0  0  0  0  0  0  0  0  0  0  0  0
    3.5115    2.4569    0.0000 C   0  0  0  0  0  0  0  0  0  0  0  0
    4.0385    3.8613    0.0000 N   0  0  0  0  0  0  0  0  0  0  0  0
    2.8658    4.7965    0.0000 N   0  0  0  0  0  0  0  0  0  0  0  0
    1.6139    3.9701    0.0000 N   0  0  0  0  0  0  0  0  0  0  0  0
    2.0130    2.5242    0.0000 N   0  0  0  0  0  0  0  0  0  0  0  0
    1.0777    1.3515    0.0000 C   0  0  0  0  0  0  0  0  0  0  0  0
    1.7286    0.0000    0.0000 C   0  0  0  0  0  0  0  0  0  0  0  0
    1.0777   -1.3515    0.0000 C   0  0  0  0  0  0  0  0  0  0  0  0
   -0.3846   -1.6852    0.0000 N   0  0  0  0  0  0  0  0  0  0  0  0
   -1.5574   -0.7500    0.0000 N   0  0  0  0  0  0  0  0  0  0  0  0
   -1.5574    0.7500    0.0000 N   0  0  0  0  0  0  0  0  0  0  0  0
   -0.3846    1.6852    0.0000 N   0  0  0  0  0  0  0  0  0  0  0  0
   -0.7184    3.1476    0.0000 C   0  0  0  0  0  0  0  0  0  0  0  0
    0.2685    4.2772    0.0000 C   0  0  0  0  0  0  0  0  0  0  0  0
   -0.5009    5.5649    0.0000 C   0  0  0  0  0  0  0  0  0  0  0  0
   -1.9633    5.2311    0.0000 C   0  0  0  0  0  0  0  0  0  0  0  0
   -3.0929    6.2180    0.0000 C   0  0  0  0  0  0  0  0  0  0  0  0
   -4.5124    5.7332    0.0000 O   0  0  0  0  0  0  0  0  0  0  0  0
   -2.8030    7.6898    0.0000 N   0  0  0  0  0  0  0  0  0  0  0  0
   -3.9326    8.6767    0.0000 C   0  0  0  0  0  0  0  0  0  0  0  0
   -5.3950    8.3429    0.0000 N   0  0  0  0  0  0  0  0  0  0  0  0
   -6.1643    9.6306    0.0000 N   0  0  0  0  0  0  0  0  0  0  0  0
   -5.1774   10.7602    0.0000 N   0  0  0  0  0  0  0  0  0  0  0  0
   -3.7981   10.1706    0.0000 N   0  0  0  0  0  0  0  0  0  0  0  0
   -2.5105   10.9400    0.0000 C   0  0  0  0  0  0  0  0  0  0  0  0
   -1.2003   10.2095    0.0000 C   0  0  0  0  0  0  0  0  0  0  0  0
    0.0873   10.9788    0.0000 C   0  0  0  0  0  0  0  0  0  0  0  0
    0.0649   12.4787    0.0000 C   0  0  0  0  0  0  0  0  0  0  0  0
    1.3526   13.2480    0.0000 C   0  0  0  0  0  0  0  0  0  0  0  0
   -1.2452   13.2092    0.0000 C   0  0  0  0  0  0  0  0  0  0  0  0
   -1.2677   14.7090    0.0000 O   0  0  0  0  0  0  0  0  0  0  0  0
   -2.5329   12.4398    0.0000 N   0  0  0  0  0  0  0  0  0  0  0  0
   -2.0977    3.7372    0.0000 C   0  0  0  0  0  0  0  0  0  0  0  0
   -3.3854    2.9678    0.0000 O   0  0  0  0  0  0  0  0  0  0  0  0
    8.6770    0.3776    0.0000 N   0  0  0  0  0  0  0  0  0  0  0  0
    9.7456   -0.6751    0.0000 C   0  0  0  0  0  0  0  0  0  0  0  0
    9.3682   -2.1269    0.0000 O   0  0  0  0  0  0  0  0  0  0  0  0
  1  2  1  0
  2  3  2  0
  3  4  1  0
  4  5  2  0
  5  6  1  0
  6  7  2  0
  7  8  1  0
  8  9  2  0
  9 10  1  0
 10 11  1  0
 11 12  1  0
 12 13  1  0
 13 14  1  0
 14 15  1  0
 15 16  1  0
 16 17  1  0
 17 18  2  0
 18 19  1  0
 19 20  2  0
 20 21  1  0
 21 22  1  0
 22 23  2  0
 23 24  1  0
 24 25  2  0
 25 26  1  0
 26 27  2  0
 27 28  1  0
 28 29  1  0
 29 30  2  0
 30 31  1  0
 31 32  2  0
 32 33  1  0
 33 34  2  0
 33 35  1  0
 35 36  1  0
 36 37  2  0
 37 38  1  0
 38 39  2  0
 39 40  1  0
 40 41  1  0
 41 42  2  0
 42 43  1  0
 43 44  2  0
 44 45  1  0
 44 46  1  0
 46 47  2  0
 46 48  1  0
 32 49  1  0
 49 50  2  0
  5 51  1  0
 51 52  1  0
 52 53  2  0
 52  2  1  0
 10  6  1  0
 16 11  1  0
 21 17  1  0
 28 22  1  0
 49 29  1  0
 40 36  1  0
 48 41  1  0
M  END
>  <Title>  (106) 
idAAEBgen8

$$$$

     RDKit          2D

 20 22  0  0  0  0  0  0  0  0999 V2000
    3.0000    0.0000    0.0000 C   0  0  0  0  0  0  0  0  0  0  0  0
    1.5000    0.0000    0.0000 C   0  0  0  0  0  0  0  0  0  0  0  0
    0.7500   -1.2990    0.0000 C   0  0  0  0  0  0  0  0  0  0  0  0
   -0.7500   -1.2990    0.0000 C   0  0  0  0  0  0  0  0  0  0  0  0
   -1.5000    0.0000    0.0000 C   0  0  0  0  0  0  0  0  0  0  0  0
   -3.0000    0.0000    0.0000 C   0  0  0  0  0  0  0  0  0  0  0  0
   -3.8817   -1.2135    0.0000 N   0  0  0  0  0  0  0  0  0  0  0  0
   -5.3083   -0.7500    0.0000 N   0  0  0  0  0  0  0  0  0  0  0  0
   -5.3083    0.7500    0.0000 N   0  0  0  0  0  0  0  0  0  0  0  0
   -3.8817    1.2135    0.0000 N   0  0  0  0  0  0  0  0  0  0  0  0
   -3.4182    2.6401    0.0000 C   0  0  0  0  0  0  0  0  0  0  0  0
   -1.9509    2.9520    0.0000 C   0  0  0  0  0  0  0  0  0  0  0  0
   -1.4874    4.3786    0.0000 C   0  0  0  0  0  0  0  0  0  0  0  0
   -2.4911    5.4933    0.0000 C   0  0  0  0  0  0  0  0  0  0  0  0
   -2.0276    6.9199    0.0000 C   0  0  0  0  0  0  0  0  0  0  0  0
   -3.9583    5.1814    0.0000 C   0  0  0  0  0  0  0  0  0  0  0  0
   -4.9620    6.2961    0.0000 O   0  0  0  0  0  0  0  0  0  0  0  0
   -4.4218    3.7548    0.0000 N   0  0  0  0  0  0  0  0  0  0  0  0
   -0.7500    1.2990    0.0000 N   0  0  0  0  0  0  0  0  0  0  0  0
    0.7500    1.2990    0.0000 N   0  0  0  0  0  0  0  0  0  0  0  0
  1  2  1  0
  2  3  2  0
  3  4  1  0
  4  5  2  0
  5  6  1  0
  6  7  2  0
  7  8  1  0
  8  9  2  0
  9 10  1  0
 10 11  1  0
 11 12  2  0
 12 13  1  0
 13 14  2  0
 14 15  1  0
 14 16  1  0
 16 17  2  0
 16 18  1  0
  5 19  1  0
 19 20  2  0
 20  2  1  0
 10  6  1  0
 18 11  1  0
M  END
>  <Title>  (107) 
idAAECgen8

$$$$

     RDKit          2D

 31 35  0  0  0  0  0  0  0  0999 V2000
    3.7500    1.2990    0.0000 C   0  0  0  0  0  0  0  0  0  0  0  0
    3.0000    0.0000    0.0000 O   0  0  0  0  0  0  0  0  0  0  0  0
    1.5000    0.0000    0.0000 C   0  0  0  0  0  0  0  0  0  0  0  0
    0.7500    1.2990    0.0000 C   0  0  0  0  0  0  0  0  0  0  0  0
   -0.7500    1.2990    0.0000 C   0  0  0  0  0  0  0  0  0  0  0  0
   -1.5000    0.0000    0.0000 C   0  0  0  0  0  0  0  0  0  0  0  0
   -3.0000    0.0000    0.0000 C   0  0  0  0  0  0  0  0  0  0  0  0
   -3.8817   -1.2135    0.0000 N   0  0  0  0  0  0  0  0  0  0  0  0
   -5.3083   -0.7500    0.0000 N   0  0  0  0  0  0  0  0  0  0  0  0
   -5.3083    0.7500    0.0000 N   0  0  0  0  0  0  0  0  0  0  0  0
   -3.8817    1.2135    0.0000 N   0  0  0  0  0  0  0  0  0  0  0  0
   -3.4182    2.6401    0.0000 C   0  0  0  0  0  0  0  0  0  0  0  0
   -1.9509    2.9520    0.0000 C   0  0  0  0  0  0  0  0  0  0  0  0
   -1.4874    4.3786    0.0000 C   0  0  0  0  0  0  0  0  0  0  0  0
   -2.4911    5.4933    0.0000 C   0  0  0  0  0  0  0  0  0  0  0  0
   -2.0276    6.9199    0.0000 C   0  0  0  0  0  0  0  0  0  0  0  0
   -2.9093    8.1334    0.0000 N   0  0  0  0  0  0  0  0  0  0  0  0
   -2.0276    9.3469    0.0000 N   0  0  0  0  0  0  0  0  0  0  0  0
   -0.6010    8.8834    0.0000 N   0  0  0  0  0  0  0  0  0  0  0  0
   -0.6010    7.3834    0.0000 N   0  0  0  0  0  0  0  0  0  0  0  0
    0.6125    6.5017    0.0000 C   0  0  0  0  0  0  0  0  0  0  0  0
    0.4557    5.0099    0.0000 C   0  0  0  0  0  0  0  0  0  0  0  0
    1.6693    4.1283    0.0000 C   0  0  0  0  0  0  0  0  0  0  0  0
    3.0396    4.7384    0.0000 C   0  0  0  0  0  0  0  0  0  0  0  0
    3.1964    6.2301    0.0000 C   0  0  0  0  0  0  0  0  0  0  0  0
    1.9829    7.1118    0.0000 C   0  0  0  0  0  0  0  0  0  0  0  0
   -3.9583    5.1814    0.0000 C   0  0  0  0  0  0  0  0  0  0  0  0
   -4.4218    3.7548    0.0000 C   0  0  0  0  0  0  0  0  0  0  0  0
   -0.7500   -1.2990    0.0000 C   0  0  0  0  0  0  0  0  0  0  0  0
   -1.5000   -2.5981    0.0000 O   0  0  0  0  0  0  0  0  0  0  0  0
    0.7500   -1.2990    0.0000 N   0  0  0  0  0  0  0  0  0  0  0  0
  1  2  1  0
  2  3  1  0
  3  4  2  0
  4  5  1  0
  5  6  2  0
  6  7  1  0
  7  8  2  0
  8  9  1  0
  9 10  2  0
 10 11  1  0
 11 12  1  0
 12 13  2  0
 13 14  1  0
 14 15  2  0
 15 16  1  0
 16 17  2  0
 17 18  1  0
 18 19  2  0
 19 20  1  0
 20 21  1  0
 21 22  2  0
 22 23  1  0
 23 24  2  0
 24 25  1  0
 25 26  2  0
 15 27  1  0
 27 28  2  0
  6 29  1  0
 29 30  2  0
 29 31  1  0
 31  3  1  0
 11  7  1  0
 28 12  1  0
 20 16  1  0
 26 21  1  0
M  END
>  <Title>  (108) 
idAAEDgen8

$$$$

     RDKit          2D

 36 39  0  0  0  0  0  0  0  0999 V2000
   -0.5773   -6.8783    0.0000 C   0  0  0  0  0  0  0  0  0  0  0  0
    0.8899   -6.5665    0.0000 C   0  0  0  0  0  0  0  0  0  0  0  0
    2.0046   -7.5702    0.0000 C   0  0  0  0  0  0  0  0  0  0  0  0
    3.3037   -6.8202    0.0000 C   0  0  0  0  0  0  0  0  0  0  0  0
    2.9918   -5.3529    0.0000 C   0  0  0  0  0  0  0  0  0  0  0  0
    1.5000   -5.1962    0.0000 N   0  0  0  0  0  0  0  0  0  0  0  0
    0.7500   -3.8971    0.0000 C   0  0  0  0  0  0  0  0  0  0  0  0
    1.5000   -2.5981    0.0000 C   0  0  0  0  0  0  0  0  0  0  0  0
    3.0000   -2.5981    0.0000 N   0  0  0  0  0  0  0  0  0  0  0  0
    3.7500   -1.2990    0.0000 C   0  0  0  0  0  0  0  0  0  0  0  0
    3.0000   -0.0000    0.0000 O   0  0  0  0  0  0  0  0  0  0  0  0
    5.2500   -1.2990    0.0000 C   0  0  0  0  0  0  0  0  0  0  0  0
    5.2500    0.2010    0.0000 C   0  0  0  0  0  0  0  0  0  0  0  0
    5.2500   -2.7990    0.0000 C   0  0  0  0  0  0  0  0  0  0  0  0
    6.7500   -1.2990    0.0000 C   0  0  0  0  0  0  0  0  0  0  0  0
    0.7500   -1.2990    0.0000 C   0  0  0  0  0  0  0  0  0  0  0  0
    1.5000    0.0000    0.0000 C   0  0  0  0  0  0  0  0  0  0  0  0
    0.7500    1.2990    0.0000 C   0  0  0  0  0  0  0  0  0  0  0  0
   -0.7500    1.2990    0.0000 C   0  0  0  0  0  0  0  0  0  0  0  0
   -1.5000    0.0000    0.0000 C   0  0  0  0  0  0  0  0  0  0  0  0
   -0.7500   -1.2990    0.0000 C   0  0  0  0  0  0  0  0  0  0  0  0
   -1.5000   -2.5981    0.0000 N   0  0  0  0  0  0  0  0  0  0  0  0
   -3.0000   -2.5981    0.0000 C   0  0  0  0  0  0  0  0  0  0  0  0
   -3.7500   -1.2990    0.0000 O   0  0  0  0  0  0  0  0  0  0  0  0
   -3.7500   -3.8971    0.0000 C   0  0  0  0  0  0  0  0  0  0  0  0
   -3.0000   -5.1962    0.0000 C   0  0  0  0  0  0  0  0  0  0  0  0
   -3.7500   -6.4952    0.0000 C   0  0  0  0  0  0  0  0  0  0  0  0
   -5.2500   -6.4952    0.0000 C   0  0  0  0  0  0  0  0  0  0  0  0
   -6.0000   -5.1962    0.0000 C   0  0  0  0  0  0  0  0  0  0  0  0
   -5.2500   -3.8971    0.0000 C   0  0  0  0  0  0  0  0  0  0  0  0
   -6.0000   -2.5981    0.0000 C   0  0  0  0  0  0  0  0  0  0  0  0
   -7.5000   -2.5981    0.0000 C   0  0  0  0  0  0  0  0  0  0  0  0
   -8.2500   -1.2990    0.0000 C   0  0  0  0  0  0  0  0  0  0  0  0
   -7.5000    0.0000    0.0000 C   0  0  0  0  0  0  0  0  0  0  0  0
   -6.0000   -0.0000    0.0000 C   0  0  0  0  0  0  0  0  0  0  0  0
   -5.2500   -1.2990    0.0000 C   0  0  0  0  0  0  0  0  0  0  0  0
  1  2  1  0
  2  3  2  0
  3  4  1  0
  4  5  2  0
  5  6  1  0
  6  7  1  0
  7  8  1  0
  8  9  1  0
  9 10  1  0
 10 11  2  0
 10 12  1  0
 12 13  1  0
 12 14  1  0
 12 15  1  0
  8 16  1  0
 16 17  2  0
 17 18  1  0
 18 19  2  0
 19 20  1  0
 20 21  2  0
 21 22  1  0
 22 23  1  0
 23 24  2  0
 23 25  1  0
 25 26  1  0
 26 27  1  0
 27 28  1  0
 28 29  1  0
 29 30  1  0
 30 31  1  0
 31 32  2  0
 32 33  1  0
 33 34  2  0
 34 35  1  0
 35 36  2  0
  6  2  1  0
 21 16  1  0
 30 25  1  0
 36 31  1  0
M  END
>  <Title>  (109) 
idAAEEgen8

$$$$

     RDKit          2D

 30 30  0  0  0  0  0  0  0  0999 V2000
    8.4368    0.0000    0.0000 C   0  0  0  0  0  0  0  0  0  0  0  0
    6.9368    0.0000    0.0000 C   0  0  0  0  0  0  0  0  0  0  0  0
    6.7746    1.4912    0.0000 C   0  0  0  0  0  0  0  0  0  0  0  0
    6.2957    2.9127    0.0000 C   0  0  0  0  0  0  0  0  0  0  0  0
    5.5223    4.1980    0.0000 C   0  0  0  0  0  0  0  0  0  0  0  0
    4.4908    5.2870    0.0000 C   0  0  0  0  0  0  0  0  0  0  0  0
    3.2493    6.1287    0.0000 C   0  0  0  0  0  0  0  0  0  0  0  0
    1.8558    6.6840    0.0000 C   0  0  0  0  0  0  0  0  0  0  0  0
    0.3756    6.9266    0.0000 C   0  0  0  0  0  0  0  0  0  0  0  0
   -1.1222    6.8454    0.0000 C   0  0  0  0  0  0  0  0  0  0  0  0
   -2.5676    6.4441    0.0000 C   0  0  0  0  0  0  0  0  0  0  0  0
   -3.8928    5.7415    0.0000 C   0  0  0  0  0  0  0  0  0  0  0  0
   -5.0361    4.7704    0.0000 C   0  0  0  0  0  0  0  0  0  0  0  0
   -5.9438    3.5763    0.0000 C   0  0  0  0  0  0  0  0  0  0  0  0
   -6.5737    2.2149    0.0000 C   0  0  0  0  0  0  0  0  0  0  0  0
   -6.8961    0.7500    0.0000 C   0  0  0  0  0  0  0  0  0  0  0  0
   -6.8961   -0.7500    0.0000 C   0  0  0  0  0  0  0  0  0  0  0  0
   -6.5737   -2.2149    0.0000 C   0  0  0  0  0  0  0  0  0  0  0  0
   -5.9438   -3.5763    0.0000 C   0  0  0  0  0  0  0  0  0  0  0  0
   -5.0361   -4.7704    0.0000 C   0  0  0  0  0  0  0  0  0  0  0  0
   -3.8928   -5.7415    0.0000 O   0  0  0  0  0  0  0  0  0  0  0  0
   -2.5676   -6.4441    0.0000 C   0  0  0  0  0  0  0  0  0  0  0  0
   -1.1222   -6.8454    0.0000 C   0  0  0  0  0  0  0  0  0  0  0  0
    0.3756   -6.9266    0.0000 C   0  0  0  0  0  0  0  0  0  0  0  0
    1.8558   -6.6840    0.0000 C   0  0  0  0  0  0  0  0  0  0  0  0
    3.2493   -6.1287    0.0000 C   0  0  0  0  0  0  0  0  0  0  0  0
    4.4908   -5.2870    0.0000 C   0  0  0  0  0  0  0  0  0  0  0  0
    5.5223   -4.1980    0.0000 C   0  0  0  0  0  0  0  0  0  0  0  0
    6.2957   -2.9127    0.0000 C   0  0  0  0  0  0  0  0  0  0  0  0
    6.7746   -1.4912    0.0000 C   0  0  0  0  0  0  0  0  0  0  0  0
  1  2  1  0
  2  3  2  0
  3  4  1  0
  4  5  2  0
  5  6  1  0
  6  7  2  0
  7  8  1  0
  8  9  2  0
  9 10  1  0
 10 11  2  0
 11 12  1  0
 12 13  2  0
 13 14  1  0
 14 15  2  0
 15 16  1  0
 16 17  2  0
 17 18  1  0
 18 19  2  0
 19 20  1  0
 20 21  1  0
 21 22  1  0
 22 23  1  0
 23 24  2  0
 24 25  1  0
 25 26  2  0
 26 27  1  0
 27 28  2  0
 28 29  1  0
 29 30  2  0
 30  2  1  0
M  END
>  <Title>  (110) 
idAAEFgen8

$$$$

     RDKit          2D

 32 36  0  0  0  0  0  0  0  0999 V2000
    3.0000    0.0000    0.0000 C   0  0  0  0  0  0  0  0  0  0  0  0
    1.5000    0.0000    0.0000 C   0  0  0  0  0  0  0  0  0  0  0  0
    0.7500   -1.2990    0.0000 C   0  0  0  0  0  0  0  0  0  0  0  0
   -0.7500   -1.2990    0.0000 C   0  0  0  0  0  0  0  0  0  0  0  0
   -1.5000    0.0000    0.0000 C   0  0  0  0  0  0  0  0  0  0  0  0
   -3.0000    0.0000    0.0000 C   0  0  0  0  0  0  0  0  0  0  0  0
   -3.7500   -1.2990    0.0000 O   0  0  0  0  0  0  0  0  0  0  0  0
   -3.7500    1.2990    0.0000 N   0  0  0  0  0  0  0  0  0  0  0  0
   -5.2500    1.2990    0.0000 C   0  0  0  0  0  0  0  0  0  0  0  0
   -6.1317    0.0855    0.0000 N   0  0  0  0  0  0  0  0  0  0  0  0
   -7.5583    0.5490    0.0000 N   0  0  0  0  0  0  0  0  0  0  0  0
   -7.5583    2.0490    0.0000 N   0  0  0  0  0  0  0  0  0  0  0  0
   -6.1317    2.5126    0.0000 N   0  0  0  0  0  0  0  0  0  0  0  0
   -5.6682    3.9391    0.0000 C   0  0  0  0  0  0  0  0  0  0  0  0
   -4.2009    4.2510    0.0000 C   0  0  0  0  0  0  0  0  0  0  0  0
   -3.7374    5.6776    0.0000 C   0  0  0  0  0  0  0  0  0  0  0  0
   -4.7411    6.7923    0.0000 C   0  0  0  0  0  0  0  0  0  0  0  0
   -4.2776    8.2189    0.0000 C   0  0  0  0  0  0  0  0  0  0  0  0
   -5.1593    9.4324    0.0000 C   0  0  0  0  0  0  0  0  0  0  0  0
   -4.2776   10.6460    0.0000 C   0  0  0  0  0  0  0  0  0  0  0  0
   -2.8510   10.1824    0.0000 C   0  0  0  0  0  0  0  0  0  0  0  0
   -2.8510    8.6824    0.0000 N   0  0  0  0  0  0  0  0  0  0  0  0
   -1.6375    7.8008    0.0000 C   0  0  0  0  0  0  0  0  0  0  0  0
   -1.7943    6.3090    0.0000 C   0  0  0  0  0  0  0  0  0  0  0  0
   -0.5807    5.4273    0.0000 C   0  0  0  0  0  0  0  0  0  0  0  0
    0.7896    6.0374    0.0000 C   0  0  0  0  0  0  0  0  0  0  0  0
    0.9464    7.5292    0.0000 C   0  0  0  0  0  0  0  0  0  0  0  0
   -0.2671    8.4109    0.0000 C   0  0  0  0  0  0  0  0  0  0  0  0
   -6.2083    6.4805    0.0000 C   0  0  0  0  0  0  0  0  0  0  0  0
   -6.6718    5.0539    0.0000 C   0  0  0  0  0  0  0  0  0  0  0  0
   -0.7500    1.2990    0.0000 C   0  0  0  0  0  0  0  0  0  0  0  0
    0.7500    1.2990    0.0000 C   0  0  0  0  0  0  0  0  0  0  0  0
  1  2  1  0
  2  3  2  0
  3  4  1  0
  4  5  2  0
  5  6  1  0
  6  7  2  0
  6  8  1  0
  8  9  1  0
  9 10  2  0
 10 11  1  0
 11 12  2  0
 12 13  1  0
 13 14  1  0
 14 15  2  0
 15 16  1  0
 16 17  2  0
 17 18  1  0
 18 19  2  0
 19 20  1  0
 20 21  2  0
 21 22  1  0
 22 23  1  0
 23 24  2  0
 24 25  1  0
 25 26  2  0
 26 27  1  0
 27 28  2  0
 17 29  1  0
 29 30  2  0
  5 31  1  0
 31 32  2  0
 32  2  1  0
 13  9  1  0
 30 14  1  0
 22 18  1  0
 28 23  1  0
M  END
>  <Title>  (111) 
idAAEGgen8

$$$$

     RDKit          2D

 39 44  0  0  0  0  0  0  0  0999 V2000
    3.0000    0.0000    0.0000 C   0  0  0  0  0  0  0  0  0  0  0  0
    1.5000    0.0000    0.0000 C   0  0  0  0  0  0  0  0  0  0  0  0
    0.7500    1.2990    0.0000 C   0  0  0  0  0  0  0  0  0  0  0  0
   -0.7500    1.2990    0.0000 C   0  0  0  0  0  0  0  0  0  0  0  0
   -1.5000    0.0000    0.0000 C   0  0  0  0  0  0  0  0  0  0  0  0
   -3.0000    0.0000    0.0000 C   0  0  0  0  0  0  0  0  0  0  0  0
   -3.8817   -1.2135    0.0000 N   0  0  0  0  0  0  0  0  0  0  0  0
   -5.3083   -0.7500    0.0000 N   0  0  0  0  0  0  0  0  0  0  0  0
   -5.3083    0.7500    0.0000 N   0  0  0  0  0  0  0  0  0  0  0  0
   -3.8817    1.2135    0.0000 N   0  0  0  0  0  0  0  0  0  0  0  0
   -3.4182    2.6401    0.0000 C   0  0  0  0  0  0  0  0  0  0  0  0
   -4.2998    3.8536    0.0000 C   0  0  0  0  0  0  0  0  0  0  0  0
   -3.4182    5.0672    0.0000 C   0  0  0  0  0  0  0  0  0  0  0  0
   -1.9916    4.6036    0.0000 C   0  0  0  0  0  0  0  0  0  0  0  0
   -0.7780    5.4853    0.0000 C   0  0  0  0  0  0  0  0  0  0  0  0
    0.5923    4.8752    0.0000 O   0  0  0  0  0  0  0  0  0  0  0  0
   -0.9348    6.9771    0.0000 N   0  0  0  0  0  0  0  0  0  0  0  0
    0.2787    7.8588    0.0000 C   0  0  0  0  0  0  0  0  0  0  0  0
    1.7053    7.3952    0.0000 N   0  0  0  0  0  0  0  0  0  0  0  0
    2.5870    8.6088    0.0000 N   0  0  0  0  0  0  0  0  0  0  0  0
    1.7053    9.8223    0.0000 N   0  0  0  0  0  0  0  0  0  0  0  0
    0.2787    9.3588    0.0000 N   0  0  0  0  0  0  0  0  0  0  0  0
   -0.9348   10.2405    0.0000 C   0  0  0  0  0  0  0  0  0  0  0  0
   -2.3052    9.6303    0.0000 C   0  0  0  0  0  0  0  0  0  0  0  0
   -3.5187   10.5120    0.0000 C   0  0  0  0  0  0  0  0  0  0  0  0
   -3.3619   12.0038    0.0000 C   0  0  0  0  0  0  0  0  0  0  0  0
   -1.9916   12.6139    0.0000 N   0  0  0  0  0  0  0  0  0  0  0  0
   -0.7780   11.7322    0.0000 C   0  0  0  0  0  0  0  0  0  0  0  0
    0.5923   12.3423    0.0000 C   0  0  0  0  0  0  0  0  0  0  0  0
    0.7491   13.8341    0.0000 C   0  0  0  0  0  0  0  0  0  0  0  0
    2.1194   14.4442    0.0000 C   0  0  0  0  0  0  0  0  0  0  0  0
    3.3329   13.5625    0.0000 C   0  0  0  0  0  0  0  0  0  0  0  0
    3.1761   12.0708    0.0000 C   0  0  0  0  0  0  0  0  0  0  0  0
    1.8058   11.4607    0.0000 C   0  0  0  0  0  0  0  0  0  0  0  0
   -1.9916    3.1036    0.0000 C   0  0  0  0  0  0  0  0  0  0  0  0
   -0.7780    2.2220    0.0000 O   0  0  0  0  0  0  0  0  0  0  0  0
   -0.7500   -1.2990    0.0000 C   0  0  0  0  0  0  0  0  0  0  0  0
   -1.5000   -2.5981    0.0000 O   0  0  0  0  0  0  0  0  0  0  0  0
    0.7500   -1.2990    0.0000 N   0  0  0  0  0  0  0  0  0  0  0  0
  1  2  1  0
  2  3  2  0
  3  4  1  0
  4  5  2  0
  5  6  1  0
  6  7  2  0
  7  8  1  0
  8  9  2  0
  9 10  1  0
 10 11  1  0
 11 12  2  0
 12 13  1  0
 13 14  2  0
 14 15  1  0
 15 16  2  0
 15 17  1  0
 17 18  1  0
 18 19  2  0
 19 20  1  0
 20 21  2  0
 21 22  1  0
 22 23  1  0
 23 24  2  0
 24 25  1  0
 25 26  2  0
 26 27  1  0
 27 28  2  0
 28 29  1  0
 29 30  2  0
 30 31  1  0
 31 32  2  0
 32 33  1  0
 33 34  2  0
 14 35  1  0
 35 36  2  0
  5 37  1  0
 37 38  2  0
 37 39  1  0
 39  2  1  0
 10  6  1  0
 35 11  1  0
 22 18  1  0
 28 23  1  0
 34 29  1  0
M  END
>  <Title>  (112) 
idAAEHgen8

$$$$

     RDKit          2D

 21 21  0  0  0  0  0  0  0  0999 V2000
    5.8191    0.0000    0.0000 C   0  0  0  0  0  0  0  0  0  0  0  0
    4.3191    0.0000    0.0000 C   0  0  0  0  0  0  0  0  0  0  0  0
    4.0586   -1.4772    0.0000 C   0  0  0  0  0  0  0  0  0  0  0  0
    3.3086   -2.7762    0.0000 C   0  0  0  0  0  0  0  0  0  0  0  0
    2.1595   -3.7404    0.0000 C   0  0  0  0  0  0  0  0  0  0  0  0
    0.7500   -4.2535    0.0000 C   0  0  0  0  0  0  0  0  0  0  0  0
   -0.7500   -4.2535    0.0000 C   0  0  0  0  0  0  0  0  0  0  0  0
   -2.1595   -3.7404    0.0000 C   0  0  0  0  0  0  0  0  0  0  0  0
   -3.3086   -2.7762    0.0000 C   0  0  0  0  0  0  0  0  0  0  0  0
   -4.0586   -1.4772    0.0000 C   0  0  0  0  0  0  0  0  0  0  0  0
   -4.3191    0.0000    0.0000 C   0  0  0  0  0  0  0  0  0  0  0  0
   -4.0586    1.4772    0.0000 C   0  0  0  0  0  0  0  0  0  0  0  0
   -3.3086    2.7762    0.0000 C   0  0  0  0  0  0  0  0  0  0  0  0
   -2.1595    3.7404    0.0000 C   0  0  0  0  0  0  0  0  0  0  0  0
   -2.9095    5.0395    0.0000 F   0  0  0  0  0  0  0  0  0  0  0  0
   -0.7500    4.2535    0.0000 C   0  0  0  0  0  0  0  0  0  0  0  0
   -1.0105    5.7307    0.0000 F   0  0  0  0  0  0  0  0  0  0  0  0
    0.7500    4.2535    0.0000 C   0  0  0  0  0  0  0  0  0  0  0  0
    2.1595    3.7404    0.0000 C   0  0  0  0  0  0  0  0  0  0  0  0
    3.3086    2.7762    0.0000 C   0  0  0  0  0  0  0  0  0  0  0  0
    4.0586    1.4772    0.0000 C   0  0  0  0  0  0  0  0  0  0  0  0
  1  2  1  0
  2  3  2  0
  3  4  1  0
  4  5  2  0
  5  6  1  0
  6  7  2  0
  7  8  1  0
  8  9  2  0
  9 10  1  0
 10 11  2  0
 11 12  1  0
 12 13  2  0
 13 14  1  0
 14 15  1  0
 14 16  2  0
 16 17  1  0
 16 18  1  0
 18 19  2  0
 19 20  1  0
 20 21  2  0
 21  2  1  0
M  END
>  <Title>  (113) 
idAAEIgen8

$$$$

     RDKit          2D

 46 51  0  0  0  0  0  0  0  0999 V2000
    6.6520    3.1342    0.0000 C   0  0  0  0  0  0  0  0  0  0  0  0
    5.9710    1.7977    0.0000 C   0  0  0  0  0  0  0  0  0  0  0  0
    6.7879    0.5397    0.0000 C   0  0  0  0  0  0  0  0  0  0  0  0
    6.1069   -0.7968    0.0000 C   0  0  0  0  0  0  0  0  0  0  0  0
    4.6090   -0.8753    0.0000 C   0  0  0  0  0  0  0  0  0  0  0  0
    3.9280   -2.2118    0.0000 C   0  0  0  0  0  0  0  0  0  0  0  0
    4.6090   -3.5483    0.0000 N   0  0  0  0  0  0  0  0  0  0  0  0
    3.5483   -4.6090    0.0000 N   0  0  0  0  0  0  0  0  0  0  0  0
    2.2118   -3.9280    0.0000 N   0  0  0  0  0  0  0  0  0  0  0  0
    2.4465   -2.4465    0.0000 N   0  0  0  0  0  0  0  0  0  0  0  0
    1.3858   -1.3858    0.0000 C   0  0  0  0  0  0  0  0  0  0  0  0
    1.9598    0.0000    0.0000 C   0  0  0  0  0  0  0  0  0  0  0  0
    1.3858    1.3858    0.0000 C   0  0  0  0  0  0  0  0  0  0  0  0
    0.0000    1.9598    0.0000 C   0  0  0  0  0  0  0  0  0  0  0  0
   -1.3858    1.3858    0.0000 C   0  0  0  0  0  0  0  0  0  0  0  0
   -1.9598    0.0000    0.0000 C   0  0  0  0  0  0  0  0  0  0  0  0
   -3.4598    0.0000    0.0000 C   0  0  0  0  0  0  0  0  0  0  0  0
   -4.2098   -1.2990    0.0000 O   0  0  0  0  0  0  0  0  0  0  0  0
   -4.2098    1.2990    0.0000 N   0  0  0  0  0  0  0  0  0  0  0  0
   -5.7098    1.2990    0.0000 C   0  0  0  0  0  0  0  0  0  0  0  0
   -6.5915    0.0855    0.0000 N   0  0  0  0  0  0  0  0  0  0  0  0
   -8.0181    0.5490    0.0000 N   0  0  0  0  0  0  0  0  0  0  0  0
   -8.0181    2.0490    0.0000 N   0  0  0  0  0  0  0  0  0  0  0  0
   -6.5915    2.5126    0.0000 N   0  0  0  0  0  0  0  0  0  0  0  0
   -6.1280    3.9391    0.0000 C   0  0  0  0  0  0  0  0  0  0  0  0
   -4.6608    4.2510    0.0000 C   0  0  0  0  0  0  0  0  0  0  0  0
   -4.1972    5.6776    0.0000 C   0  0  0  0  0  0  0  0  0  0  0  0
   -5.2009    6.7923    0.0000 C   0  0  0  0  0  0  0  0  0  0  0  0
   -6.6682    6.4805    0.0000 C   0  0  0  0  0  0  0  0  0  0  0  0
   -7.1317    5.0539    0.0000 C   0  0  0  0  0  0  0  0  0  0  0  0
   -1.3858   -1.3858    0.0000 C   0  0  0  0  0  0  0  0  0  0  0  0
   -0.0000   -1.9598    0.0000 C   0  0  0  0  0  0  0  0  0  0  0  0
   -0.0000   -3.4598    0.0000 C   0  0  0  0  0  0  0  0  0  0  0  0
    1.2990   -4.2098    0.0000 C   0  0  0  0  0  0  0  0  0  0  0  0
    1.2990   -5.7098    0.0000 C   0  0  0  0  0  0  0  0  0  0  0  0
   -0.0000   -6.4598    0.0000 C   0  0  0  0  0  0  0  0  0  0  0  0
   -0.0000   -7.9598    0.0000 C   0  0  0  0  0  0  0  0  0  0  0  0
   -1.2990   -8.7098    0.0000 O   0  0  0  0  0  0  0  0  0  0  0  0
    1.2990   -8.7098    0.0000 N   0  0  0  0  0  0  0  0  0  0  0  0
    1.2990  -10.2098    0.0000 O   0  0  0  0  0  0  0  0  0  0  0  0
   -1.2990   -5.7098    0.0000 C   0  0  0  0  0  0  0  0  0  0  0  0
   -1.2990   -4.2098    0.0000 C   0  0  0  0  0  0  0  0  0  0  0  0
   -2.5981   -3.4598    0.0000 O   0  0  0  0  0  0  0  0  0  0  0  0
    3.7920    0.3827    0.0000 N   0  0  0  0  0  0  0  0  0  0  0  0
    4.4730    1.7192    0.0000 C   0  0  0  0  0  0  0  0  0  0  0  0
    3.6561    2.9772    0.0000 O   0  0  0  0  0  0  0  0  0  0  0  0
  1  2  1  0
  2  3  2  0
  3  4  1  0
  4  5  2  0
  5  6  1  0
  6  7  2  0
  7  8  1  0
  8  9  2  0
  9 10  1  0
 10 11  1  0
 11 12  1  0
 12 13  1  0
 13 14  1  0
 14 15  1  0
 15 16  1  0
 16 17  1  0
 17 18  2  0
 17 19  1  0
 19 20  1  0
 20 21  2  0
 21 22  1  0
 22 23  2  0
 23 24  1  0
 24 25  1  0
 25 26  2  0
 26 27  1  0
 27 28  2  0
 28 29  1  0
 29 30  2  0
 16 31  1  0
 31 32  2  0
 32 33  1  0
 33 34  2  0
 34 35  1  0
 35 36  2  0
 36 37  1  0
 37 38  2  0
 37 39  1  0
 39 40  1  0
 36 41  1  0
 41 42  1  0
 42 43  2  0
  5 44  1  0
 44 45  1  0
 45 46  2  0
 45  2  1  0
 10  6  1  0
 32 11  1  0
 42 33  1  0
 24 20  1  0
 30 25  1  0
M  END
>  <Title>  (114) 
idAAEJgen8

$$$$

     RDKit          2D

  6  6  0  0  0  0  0  0  0  0999 V2000
    2.7760    0.0000    0.0000 O   0  0  0  0  0  0  0  0  0  0  0  0
    1.2760    0.0000    0.0000 C   0  0  0  0  0  0  0  0  0  0  0  0
    0.3943    1.2135    0.0000 C   0  0  0  0  0  0  0  0  0  0  0  0
   -1.0323    0.7500    0.0000 C   0  0  0  0  0  0  0  0  0  0  0  0
   -1.0323   -0.7500    0.0000 C   0  0  0  0  0  0  0  0  0  0  0  0
    0.3943   -1.2135    0.0000 C   0  0  0  0  0  0  0  0  0  0  0  0
  1  2  1  0
  2  3  2  0
  3  4  1  0
  4  5  2  0
  5  6  1  0
  6  2  1  0
M  END
>  <Title>  (115) 
idAAEKgen8

$$$$

     RDKit          2D

 39 44  0  0  0  0  0  0  0  0999 V2000
   -2.5327   -0.1980    0.0000 C   0  0  0  0  0  0  0  0  0  0  0  0
   -3.3591    1.0539    0.0000 C   0  0  0  0  0  0  0  0  0  0  0  0
   -4.8564    0.9642    0.0000 C   0  0  0  0  0  0  0  0  0  0  0  0
   -5.6827    2.2161    0.0000 C   0  0  0  0  0  0  0  0  0  0  0  0
   -5.0118    3.5576    0.0000 C   0  0  0  0  0  0  0  0  0  0  0  0
   -5.8381    4.8095    0.0000 C   0  0  0  0  0  0  0  0  0  0  0  0
   -7.3366    4.8768    0.0000 N   0  0  0  0  0  0  0  0  0  0  0  0
   -7.7357    6.3227    0.0000 N   0  0  0  0  0  0  0  0  0  0  0  0
   -6.4838    7.1491    0.0000 N   0  0  0  0  0  0  0  0  0  0  0  0
   -5.3111    6.2138    0.0000 N   0  0  0  0  0  0  0  0  0  0  0  0
   -3.8651    6.6129    0.0000 C   0  0  0  0  0  0  0  0  0  0  0  0
   -3.3380    8.0172    0.0000 N   0  0  0  0  0  0  0  0  0  0  0  0
   -1.8396    7.9499    0.0000 C   0  0  0  0  0  0  0  0  0  0  0  0
   -0.9043    9.1227    0.0000 O   0  0  0  0  0  0  0  0  0  0  0  0
   -1.4405    6.5040    0.0000 C   0  0  0  0  0  0  0  0  0  0  0  0
   -0.0362    5.9769    0.0000 C   0  0  0  0  0  0  0  0  0  0  0  0
    1.1225    6.9296    0.0000 O   0  0  0  0  0  0  0  0  0  0  0  0
    0.2096    4.4972    0.0000 N   0  0  0  0  0  0  0  0  0  0  0  0
    1.6139    3.9701    0.0000 C   0  0  0  0  0  0  0  0  0  0  0  0
    2.8658    4.7965    0.0000 N   0  0  0  0  0  0  0  0  0  0  0  0
    4.0385    3.8613    0.0000 N   0  0  0  0  0  0  0  0  0  0  0  0
    3.5115    2.4569    0.0000 N   0  0  0  0  0  0  0  0  0  0  0  0
    2.0130    2.5242    0.0000 N   0  0  0  0  0  0  0  0  0  0  0  0
    1.0777    1.3515    0.0000 C   0  0  0  0  0  0  0  0  0  0  0  0
   -0.3846    1.6852    0.0000 C   0  0  0  0  0  0  0  0  0  0  0  0
   -1.5574    0.7500    0.0000 C   0  0  0  0  0  0  0  0  0  0  0  0
   -1.5574   -0.7500    0.0000 N   0  0  0  0  0  0  0  0  0  0  0  0
   -0.3846   -1.6852    0.0000 N   0  0  0  0  0  0  0  0  0  0  0  0
    1.0777   -1.3515    0.0000 N   0  0  0  0  0  0  0  0  0  0  0  0
    1.7286    0.0000    0.0000 N   0  0  0  0  0  0  0  0  0  0  0  0
    3.2286    0.0000    0.0000 C   0  0  0  0  0  0  0  0  0  0  0  0
    3.9786    1.2990    0.0000 C   0  0  0  0  0  0  0  0  0  0  0  0
    5.4786    1.2990    0.0000 C   0  0  0  0  0  0  0  0  0  0  0  0
    6.2286    0.0000    0.0000 C   0  0  0  0  0  0  0  0  0  0  0  0
    5.4786   -1.2990    0.0000 C   0  0  0  0  0  0  0  0  0  0  0  0
    3.9786   -1.2990    0.0000 C   0  0  0  0  0  0  0  0  0  0  0  0
   -2.6924    5.6777    0.0000 N   0  0  0  0  0  0  0  0  0  0  0  0
   -3.5145    3.6473    0.0000 N   0  0  0  0  0  0  0  0  0  0  0  0
   -2.6881    2.3955    0.0000 C   0  0  0  0  0  0  0  0  0  0  0  0
  1  2  1  0
  2  3  2  0
  3  4  1  0
  4  5  2  0
  5  6  1  0
  6  7  2  0
  7  8  1  0
  8  9  2  0
  9 10  1  0
 10 11  1  0
 11 12  1  0
 12 13  1  0
 13 14  2  0
 13 15  1  0
 15 16  1  0
 16 17  2  0
 16 18  1  0
 18 19  1  0
 19 20  2  0
 20 21  1  0
 21 22  2  0
 22 23  1  0
 23 24  1  0
 24 25  2  0
 25 26  1  0
 26 27  2  0
 27 28  1  0
 28 29  2  0
 29 30  1  0
 30 31  1  0
 31 32  2  0
 32 33  1  0
 33 34  2  0
 34 35  1  0
 35 36  2  0
 15 37  1  0
  5 38  1  0
 38 39  1  0
 39  2  1  0
 10  6  1  0
 37 11  1  0
 23 19  1  0
 30 24  1  0
 36 31  1  0
M  END
>  <Title>  (116) 
idAAELgen8

$$$$

     RDKit          2D

 17 17  0  0  0  0  0  0  0  0999 V2000
    6.6478   -1.2990    0.0000 C   0  0  0  0  0  0  0  0  0  0  0  0
    5.1478   -1.2990    0.0000 C   0  0  0  0  0  0  0  0  0  0  0  0
    4.3978   -2.5981    0.0000 O   0  0  0  0  0  0  0  0  0  0  0  0
    4.3978    0.0000    0.0000 O   0  0  0  0  0  0  0  0  0  0  0  0
    2.8978    0.0000    0.0000 C   0  0  0  0  0  0  0  0  0  0  0  0
    2.5095   -1.4489    0.0000 C   0  0  0  0  0  0  0  0  0  0  0  0
    1.4489   -2.5095    0.0000 C   0  0  0  0  0  0  0  0  0  0  0  0
   -0.0000   -2.8978    0.0000 C   0  0  0  0  0  0  0  0  0  0  0  0
   -1.4489   -2.5095    0.0000 C   0  0  0  0  0  0  0  0  0  0  0  0
   -2.5095   -1.4489    0.0000 C   0  0  0  0  0  0  0  0  0  0  0  0
   -2.8978    0.0000    0.0000 C   0  0  0  0  0  0  0  0  0  0  0  0
   -2.5095    1.4489    0.0000 C   0  0  0  0  0  0  0  0  0  0  0  0
   -1.4489    2.5095    0.0000 C   0  0  0  0  0  0  0  0  0  0  0  0
    0.0000    2.8978    0.0000 C   0  0  0  0  0  0  0  0  0  0  0  0
    1.4489    2.5095    0.0000 C   0  0  0  0  0  0  0  0  0  0  0  0
    2.5095    1.4489    0.0000 C   0  0  0  0  0  0  0  0  0  0  0  0
    3.8086    2.1989    0.0000 O   0  0  0  0  0  0  0  0  0  0  0  0
  1  2  1  0
  2  3  2  0
  2  4  1  0
  4  5  1  0
  5  6  2  0
  6  7  1  0
  7  8  2  0
  8  9  1  0
  9 10  2  0
 10 11  1  0
 11 12  2  0
 12 13  1  0
 13 14  2  0
 14 15  1  0
 15 16  2  0
 16 17  1  0
 16  5  1  0
M  END
>  <Title>  (117) 
idAAEMgen8

$$$$

     RDKit          2D

 10 10  0  0  0  0  0  0  0  0999 V2000
    3.7500   -1.2990    0.0000 C   0  0  0  0  0  0  0  0  0  0  0  0
    3.0000    0.0000    0.0000 O   0  0  0  0  0  0  0  0  0  0  0  0
    1.5000    0.0000    0.0000 C   0  0  0  0  0  0  0  0  0  0  0  0
    0.7500   -1.2990    0.0000 C   0  0  0  0  0  0  0  0  0  0  0  0
   -0.7500   -1.2990    0.0000 C   0  0  0  0  0  0  0  0  0  0  0  0
   -1.5000    0.0000    0.0000 C   0  0  0  0  0  0  0  0  0  0  0  0
   -3.0000    0.0000    0.0000 O   0  0  0  0  0  0  0  0  0  0  0  0
   -0.7500    1.2990    0.0000 C   0  0  0  0  0  0  0  0  0  0  0  0
    0.7500    1.2990    0.0000 C   0  0  0  0  0  0  0  0  0  0  0  0
    1.5000    2.5981    0.0000 C   0  0  0  0  0  0  0  0  0  0  0  0
  1  2  1  0
  2  3  1  0
  3  4  2  0
  4  5  1  0
  5  6  2  0
  6  7  1  0
  6  8  1  0
  8  9  2  0
  9 10  1  0
  9  3  1  0
M  END
>  <Title>  (118) 
idAAENgen8

$$$$

     RDKit          2D

 25 25  0  0  0  0  0  0  0  0999 V2000
    7.5200   -1.2990    0.0000 C   0  0  0  0  0  0  0  0  0  0  0  0
    6.7700    0.0000    0.0000 O   0  0  0  0  0  0  0  0  0  0  0  0
    5.2700    0.0000    0.0000 C   0  0  0  0  0  0  0  0  0  0  0  0
    5.0565   -1.4847    0.0000 C   0  0  0  0  0  0  0  0  0  0  0  0
    4.4334   -2.8492    0.0000 C   0  0  0  0  0  0  0  0  0  0  0  0
    3.4511   -3.9828    0.0000 C   0  0  0  0  0  0  0  0  0  0  0  0
    2.1892   -4.7938    0.0000 C   0  0  0  0  0  0  0  0  0  0  0  0
    0.7500   -5.2164    0.0000 C   0  0  0  0  0  0  0  0  0  0  0  0
   -0.7500   -5.2164    0.0000 C   0  0  0  0  0  0  0  0  0  0  0  0
   -2.1892   -4.7938    0.0000 C   0  0  0  0  0  0  0  0  0  0  0  0
   -3.4511   -3.9828    0.0000 C   0  0  0  0  0  0  0  0  0  0  0  0
   -4.4334   -2.8492    0.0000 C   0  0  0  0  0  0  0  0  0  0  0  0
   -5.0565   -1.4847    0.0000 C   0  0  0  0  0  0  0  0  0  0  0  0
   -5.2700    0.0000    0.0000 C   0  0  0  0  0  0  0  0  0  0  0  0
   -5.0565    1.4847    0.0000 C   0  0  0  0  0  0  0  0  0  0  0  0
   -4.4334    2.8492    0.0000 C   0  0  0  0  0  0  0  0  0  0  0  0
   -3.4511    3.9828    0.0000 C   0  0  0  0  0  0  0  0  0  0  0  0
   -2.1892    4.7938    0.0000 C   0  0  0  0  0  0  0  0  0  0  0  0
   -0.7500    5.2164    0.0000 C   0  0  0  0  0  0  0  0  0  0  0  0
    0.7500    5.2164    0.0000 C   0  0  0  0  0  0  0  0  0  0  0  0
    2.1892    4.7938    0.0000 C   0  0  0  0  0  0  0  0  0  0  0  0
    3.4511    3.9828    0.0000 C   0  0  0  0  0  0  0  0  0  0  0  0
    4.4334    2.8492    0.0000 C   0  0  0  0  0  0  0  0  0  0  0  0
    5.0565    1.4847    0.0000 C   0  0  0  0  0  0  0  0  0  0  0  0
    6.4958    1.9073    0.0000 O   0  0  0  0  0  0  0  0  0  0  0  0
  1  2  1  0
  2  3  1  0
  3  4  2  0
  4  5  1  0
  5  6  2  0
  6  7  2  0
  7  8  2  0
  8  9  1  0
  9 10  2  0
 10 11  1  0
 11 12  2  0
 12 13  1  0
 13 14  2  0
 14 15  1  0
 15 16  2  0
 16 17  1  0
 17 18  2  0
 18 19  1  0
 19 20  2  0
 20 21  1  0
 21 22  2  0
 22 23  1  0
 23 24  2  0
 24 25  1  0
 24  3  1  0
M  END
>  <Title>  (119) 
idAAEOgen8

$$$$

     RDKit          2D

 15 16  0  0  0  0  0  0  0  0999 V2000
   -1.0323    7.1041    0.0000 C   0  0  0  0  0  0  0  0  0  0  0  0
   -1.0323    5.6041    0.0000 C   0  0  0  0  0  0  0  0  0  0  0  0
    0.3943    5.1406    0.0000 C   0  0  0  0  0  0  0  0  0  0  0  0
    1.2760    3.9271    0.0000 C   0  0  0  0  0  0  0  0  0  0  0  0
    1.2760    2.4271    0.0000 C   0  0  0  0  0  0  0  0  0  0  0  0
    0.3943    1.2135    0.0000 C   0  0  0  0  0  0  0  0  0  0  0  0
    1.2760    0.0000    0.0000 C   0  0  0  0  0  0  0  0  0  0  0  0
    0.3943   -1.2135    0.0000 C   0  0  0  0  0  0  0  0  0  0  0  0
   -1.0323   -0.7500    0.0000 C   0  0  0  0  0  0  0  0  0  0  0  0
   -1.0323    0.7500    0.0000 C   0  0  0  0  0  0  0  0  0  0  0  0
   -2.4589    1.2135    0.0000 C   0  0  0  0  0  0  0  0  0  0  0  0
   -3.3405    2.4271    0.0000 C   0  0  0  0  0  0  0  0  0  0  0  0
   -3.3405    3.9271    0.0000 C   0  0  0  0  0  0  0  0  0  0  0  0
   -2.4589    5.1406    0.0000 C   0  0  0  0  0  0  0  0  0  0  0  0
   -3.3405    6.3541    0.0000 O   0  0  0  0  0  0  0  0  0  0  0  0
  1  2  1  0
  2  3  2  0
  3  4  1  0
  4  5  2  0
  5  6  2  0
  6  7  1  0
  7  8  2  0
  8  9  1  0
  9 10  2  0
 10 11  1  0
 11 12  2  0
 12 13  1  0
 13 14  2  0
 14 15  1  0
 14  2  1  0
 10  6  1  0
M  END
>  <Title>  (120) 
idAAEPgen8

$$$$

     RDKit          2D

 55 62  0  0  0  0  0  0  0  0999 V2000
    1.8478   -6.4639    0.0000 C   0  0  0  0  0  0  0  0  0  0  0  0
    2.0046   -4.9721    0.0000 C   0  0  0  0  0  0  0  0  0  0  0  0
    0.8899   -3.9684    0.0000 C   0  0  0  0  0  0  0  0  0  0  0  0
    1.5000   -2.5981    0.0000 N   0  0  0  0  0  0  0  0  0  0  0  0
    0.7500   -1.2990    0.0000 C   0  0  0  0  0  0  0  0  0  0  0  0
    1.5000    0.0000    0.0000 C   0  0  0  0  0  0  0  0  0  0  0  0
    0.7500    1.2990    0.0000 C   0  0  0  0  0  0  0  0  0  0  0  0
    1.5000    2.5981    0.0000 C   0  0  0  0  0  0  0  0  0  0  0  0
    3.0000    2.5981    0.0000 O   0  0  0  0  0  0  0  0  0  0  0  0
    0.7500    3.8971    0.0000 N   0  0  0  0  0  0  0  0  0  0  0  0
    1.5000    5.1962    0.0000 C   0  0  0  0  0  0  0  0  0  0  0  0
    2.9918    5.3529    0.0000 N   0  0  0  0  0  0  0  0  0  0  0  0
    3.3037    6.8202    0.0000 N   0  0  0  0  0  0  0  0  0  0  0  0
    2.0046    7.5702    0.0000 N   0  0  0  0  0  0  0  0  0  0  0  0
    0.8899    6.5665    0.0000 N   0  0  0  0  0  0  0  0  0  0  0  0
   -0.5773    6.8783    0.0000 C   0  0  0  0  0  0  0  0  0  0  0  0
   -1.5810    5.7636    0.0000 C   0  0  0  0  0  0  0  0  0  0  0  0
   -3.0482    6.0755    0.0000 C   0  0  0  0  0  0  0  0  0  0  0  0
   -3.5118    7.5021    0.0000 C   0  0  0  0  0  0  0  0  0  0  0  0
   -2.5081    8.6168    0.0000 C   0  0  0  0  0  0  0  0  0  0  0  0
   -1.0409    8.3049    0.0000 C   0  0  0  0  0  0  0  0  0  0  0  0
   -0.7500    1.2990    0.0000 C   0  0  0  0  0  0  0  0  0  0  0  0
   -1.5000    0.0000    0.0000 C   0  0  0  0  0  0  0  0  0  0  0  0
   -0.7500   -1.2990    0.0000 C   0  0  0  0  0  0  0  0  0  0  0  0
   -1.5000   -2.5981    0.0000 N   0  0  0  0  0  0  0  0  0  0  0  0
   -0.8899   -3.9684    0.0000 N   0  0  0  0  0  0  0  0  0  0  0  0
   -2.0046   -4.9721    0.0000 N   0  0  0  0  0  0  0  0  0  0  0  0
   -3.3037   -4.2221    0.0000 C   0  0  0  0  0  0  0  0  0  0  0  0
   -2.9918   -2.7549    0.0000 C   0  0  0  0  0  0  0  0  0  0  0  0
   -3.9955   -1.6402    0.0000 N   0  0  0  0  0  0  0  0  0  0  0  0
   -3.6836   -0.1729    0.0000 N   0  0  0  0  0  0  0  0  0  0  0  0
   -4.9826    0.5771    0.0000 N   0  0  0  0  0  0  0  0  0  0  0  0
   -6.0974   -0.4266    0.0000 N   0  0  0  0  0  0  0  0  0  0  0  0
   -5.4873   -1.7969    0.0000 C   0  0  0  0  0  0  0  0  0  0  0  0
   -6.2373   -3.0960    0.0000 C   0  0  0  0  0  0  0  0  0  0  0  0
   -5.4873   -4.3950    0.0000 C   0  0  0  0  0  0  0  0  0  0  0  0
   -6.2373   -5.6941    0.0000 C   0  0  0  0  0  0  0  0  0  0  0  0
   -7.7373   -5.6941    0.0000 C   0  0  0  0  0  0  0  0  0  0  0  0
   -8.4873   -6.9931    0.0000 C   0  0  0  0  0  0  0  0  0  0  0  0
   -8.4873   -4.3950    0.0000 N   0  0  0  0  0  0  0  0  0  0  0  0
   -7.7373   -3.0960    0.0000 C   0  0  0  0  0  0  0  0  0  0  0  0
   -8.4873   -1.7969    0.0000 O   0  0  0  0  0  0  0  0  0  0  0  0
    2.9918   -2.7549    0.0000 C   0  0  0  0  0  0  0  0  0  0  0  0
    3.9955   -1.6402    0.0000 C   0  0  0  0  0  0  0  0  0  0  0  0
    3.5320   -0.2136    0.0000 C   0  0  0  0  0  0  0  0  0  0  0  0
    4.5356    0.9012    0.0000 C   0  0  0  0  0  0  0  0  0  0  0  0
    6.0029    0.5893    0.0000 C   0  0  0  0  0  0  0  0  0  0  0  0
    7.0066    1.7040    0.0000 C   0  0  0  0  0  0  0  0  0  0  0  0
    6.5430    3.1306    0.0000 O   0  0  0  0  0  0  0  0  0  0  0  0
    8.4738    1.3921    0.0000 N   0  0  0  0  0  0  0  0  0  0  0  0
    9.4775    2.5068    0.0000 O   0  0  0  0  0  0  0  0  0  0  0  0
    6.4664   -0.8373    0.0000 N   0  0  0  0  0  0  0  0  0  0  0  0
    5.4627   -1.9520    0.0000 C   0  0  0  0  0  0  0  0  0  0  0  0
    5.9262   -3.3786    0.0000 O   0  0  0  0  0  0  0  0  0  0  0  0
    3.3037   -4.2221    0.0000 C   0  0  0  0  0  0  0  0  0  0  0  0
  1  2  1  0
  2  3  2  0
  3  4  1  0
  4  5  1  0
  5  6  2  0
  6  7  1  0
  7  8  1  0
  8  9  2  0
  8 10  1  0
 10 11  1  0
 11 12  2  0
 12 13  1  0
 13 14  2  0
 14 15  1  0
 15 16  1  0
 16 17  2  0
 17 18  1  0
 18 19  2  0
 19 20  1  0
 20 21  2  0
  7 22  2  0
 22 23  1  0
 23 24  2  0
 24 25  1  0
 25 26  1  0
 26 27  2  0
 27 28  1  0
 28 29  2  0
 29 30  1  0
 30 31  1  0
 31 32  2  0
 32 33  1  0
 33 34  2  0
 34 35  1  0
 35 36  2  0
 36 37  1  0
 37 38  2  0
 38 39  1  0
 38 40  1  0
 40 41  1  0
 41 42  2  0
  4 43  1  0
 43 44  1  0
 44 45  2  0
 45 46  1  0
 46 47  2  0
 47 48  1  0
 48 49  2  0
 48 50  1  0
 50 51  1  0
 47 52  1  0
 52 53  1  0
 53 54  2  0
 43 55  2  0
 55  2  1  0
 24  5  1  0
 29 25  1  0
 34 30  1  0
 41 35  1  0
 53 44  1  0
 15 11  1  0
 21 16  1  0
M  END
>  <Title>  (121) 
idAAEQgen8

$$$$

     RDKit          2D

 28 28  0  0  0  0  0  0  0  0999 V2000
    7.7222    0.0000    0.0000 O   0  0  0  0  0  0  0  0  0  0  0  0
    6.2222    0.0000    0.0000 C   0  0  0  0  0  0  0  0  0  0  0  0
    6.0414   -1.4891    0.0000 C   0  0  0  0  0  0  0  0  0  0  0  0
    5.5095   -2.8916    0.0000 C   0  0  0  0  0  0  0  0  0  0  0  0
    4.6574   -4.1261    0.0000 C   0  0  0  0  0  0  0  0  0  0  0  0
    3.5346   -5.1207    0.0000 C   0  0  0  0  0  0  0  0  0  0  0  0
    2.2064   -5.8178    0.0000 C   0  0  0  0  0  0  0  0  0  0  0  0
    0.7500   -6.1768    0.0000 C   0  0  0  0  0  0  0  0  0  0  0  0
   -0.7500   -6.1768    0.0000 C   0  0  0  0  0  0  0  0  0  0  0  0
   -2.2064   -5.8178    0.0000 C   0  0  0  0  0  0  0  0  0  0  0  0
   -3.5346   -5.1207    0.0000 C   0  0  0  0  0  0  0  0  0  0  0  0
   -4.6574   -4.1261    0.0000 C   0  0  0  0  0  0  0  0  0  0  0  0
   -5.5095   -2.8916    0.0000 C   0  0  0  0  0  0  0  0  0  0  0  0
   -6.0414   -1.4891    0.0000 C   0  0  0  0  0  0  0  0  0  0  0  0
   -6.2222    0.0000    0.0000 C   0  0  0  0  0  0  0  0  0  0  0  0
   -6.0414    1.4891    0.0000 C   0  0  0  0  0  0  0  0  0  0  0  0
   -5.5095    2.8916    0.0000 C   0  0  0  0  0  0  0  0  0  0  0  0
   -4.6574    4.1261    0.0000 C   0  0  0  0  0  0  0  0  0  0  0  0
   -3.5346    5.1207    0.0000 C   0  0  0  0  0  0  0  0  0  0  0  0
   -2.2064    5.8178    0.0000 C   0  0  0  0  0  0  0  0  0  0  0  0
   -0.7500    6.1768    0.0000 C   0  0  0  0  0  0  0  0  0  0  0  0
    0.7500    6.1768    0.0000 C   0  0  0  0  0  0  0  0  0  0  0  0
    2.2064    5.8178    0.0000 C   0  0  0  0  0  0  0  0  0  0  0  0
    3.5346    5.1207    0.0000 C   0  0  0  0  0  0  0  0  0  0  0  0
    4.6574    4.1261    0.0000 C   0  0  0  0  0  0  0  0  0  0  0  0
    5.5095    2.8916    0.0000 C   0  0  0  0  0  0  0  0  0  0  0  0
    6.0414    1.4891    0.0000 C   0  0  0  0  0  0  0  0  0  0  0  0
    7.4978    1.8480    0.0000 O   0  0  0  0  0  0  0  0  0  0  0  0
  1  2  1  0
  2  3  2  0
  3  4  1  0
  4  5  2  0
  5  6  1  0
  6  7  2  0
  7  8  1  0
  8  9  2  0
  9 10  1  0
 10 11  2  0
 11 12  1  0
 12 13  2  0
 13 14  1  0
 14 15  2  0
 15 16  1  0
 16 17  2  0
 17 18  1  0
 18 19  2  0
 19 20  1  0
 20 21  2  0
 21 22  1  0
 22 23  2  0
 23 24  1  0
 24 25  2  0
 25 26  1  0
 26 27  2  0
 27 28  1  0
 27  2  1  0
M  END
>  <Title>  (122) 
idAAERgen8

$$$$

     RDKit          2D

 18 19  0  0  0  0  0  0  0  0999 V2000
    5.9523    4.8475    0.0000 C   0  0  0  0  0  0  0  0  0  0  0  0
    4.6110    4.1761    0.0000 C   0  0  0  0  0  0  0  0  0  0  0  0
    4.7180    2.6799    0.0000 C   0  0  0  0  0  0  0  0  0  0  0  0
    3.7357    1.5462    0.0000 C   0  0  0  0  0  0  0  0  0  0  0  0
    2.2395    1.4392    0.0000 C   0  0  0  0  0  0  0  0  0  0  0  0
    2.6621    0.0000    0.0000 C   0  0  0  0  0  0  0  0  0  0  0  0
    2.2395   -1.4392    0.0000 C   0  0  0  0  0  0  0  0  0  0  0  0
    1.1059   -2.4215    0.0000 C   0  0  0  0  0  0  0  0  0  0  0  0
   -0.3789   -2.6350    0.0000 C   0  0  0  0  0  0  0  0  0  0  0  0
   -1.7433   -2.0119    0.0000 C   0  0  0  0  0  0  0  0  0  0  0  0
   -2.5543   -0.7500    0.0000 C   0  0  0  0  0  0  0  0  0  0  0  0
   -2.5543    0.7500    0.0000 C   0  0  0  0  0  0  0  0  0  0  0  0
   -1.7433    2.0119    0.0000 C   0  0  0  0  0  0  0  0  0  0  0  0
   -0.3789    2.6350    0.0000 C   0  0  0  0  0  0  0  0  0  0  0  0
    1.1059    2.4215    0.0000 C   0  0  0  0  0  0  0  0  0  0  0  0
    0.9989    3.9177    0.0000 N   0  0  0  0  0  0  0  0  0  0  0  0
    1.9812    5.0513    0.0000 C   0  0  0  0  0  0  0  0  0  0  0  0
    3.4773    5.1583    0.0000 C   0  0  0  0  0  0  0  0  0  0  0  0
  1  2  1  0
  2  3  2  0
  3  4  1  0
  4  5  2  0
  5  6  1  0
  6  7  2  0
  7  8  1  0
  8  9  2  0
  9 10  1  0
 10 11  2  0
 11 12  1  0
 12 13  2  0
 13 14  1  0
 14 15  2  0
 15 16  1  0
 16 17  1  0
 17 18  1  0
 18  2  1  0
 15  5  1  0
M  END
>  <Title>  (123) 
idAAESgen8

$$$$

     RDKit          2D

 33 36  0  0  0  0  0  0  0  0999 V2000
    4.6771   -1.2990    0.0000 C   0  0  0  0  0  0  0  0  0  0  0  0
    3.9271    0.0000    0.0000 O   0  0  0  0  0  0  0  0  0  0  0  0
    2.4271    0.0000    0.0000 C   0  0  0  0  0  0  0  0  0  0  0  0
    1.9635   -1.4266    0.0000 C   0  0  0  0  0  0  0  0  0  0  0  0
    0.7500   -2.3083    0.0000 C   0  0  0  0  0  0  0  0  0  0  0  0
   -0.7500   -2.3083    0.0000 C   0  0  0  0  0  0  0  0  0  0  0  0
   -1.9635   -1.4266    0.0000 C   0  0  0  0  0  0  0  0  0  0  0  0
   -2.4271    0.0000    0.0000 C   0  0  0  0  0  0  0  0  0  0  0  0
   -1.9635    1.4266    0.0000 C   0  0  0  0  0  0  0  0  0  0  0  0
   -0.7500    2.3083    0.0000 C   0  0  0  0  0  0  0  0  0  0  0  0
    0.7500    2.3083    0.0000 C   0  0  0  0  0  0  0  0  0  0  0  0
    1.9635    1.4266    0.0000 C   0  0  0  0  0  0  0  0  0  0  0  0
    3.1771    2.3083    0.0000 C   0  0  0  0  0  0  0  0  0  0  0  0
    4.5474    1.6982    0.0000 C   0  0  0  0  0  0  0  0  0  0  0  0
    5.7609    2.5798    0.0000 C   0  0  0  0  0  0  0  0  0  0  0  0
    7.1312    1.9697    0.0000 C   0  0  0  0  0  0  0  0  0  0  0  0
    8.3447    2.8514    0.0000 C   0  0  0  0  0  0  0  0  0  0  0  0
    8.1879    4.3432    0.0000 C   0  0  0  0  0  0  0  0  0  0  0  0
    9.4015    5.2249    0.0000 C   0  0  0  0  0  0  0  0  0  0  0  0
    9.4015    6.7249    0.0000 N   0  0  0  0  0  0  0  0  0  0  0  0
   10.8281    7.1884    0.0000 N   0  0  0  0  0  0  0  0  0  0  0  0
   11.7097    5.9749    0.0000 N   0  0  0  0  0  0  0  0  0  0  0  0
   10.8281    4.7613    0.0000 N   0  0  0  0  0  0  0  0  0  0  0  0
   11.2916    3.3348    0.0000 C   0  0  0  0  0  0  0  0  0  0  0  0
   10.2879    2.2200    0.0000 C   0  0  0  0  0  0  0  0  0  0  0  0
   10.7514    0.7935    0.0000 C   0  0  0  0  0  0  0  0  0  0  0  0
   12.2186    0.4816    0.0000 C   0  0  0  0  0  0  0  0  0  0  0  0
   12.6822   -0.9450    0.0000 C   0  0  0  0  0  0  0  0  0  0  0  0
   13.2223    1.5963    0.0000 C   0  0  0  0  0  0  0  0  0  0  0  0
   14.6895    1.2844    0.0000 O   0  0  0  0  0  0  0  0  0  0  0  0
   12.7588    3.0229    0.0000 N   0  0  0  0  0  0  0  0  0  0  0  0
    6.8176    4.9533    0.0000 N   0  0  0  0  0  0  0  0  0  0  0  0
    5.6041    4.0716    0.0000 N   0  0  0  0  0  0  0  0  0  0  0  0
  1  2  1  0
  2  3  1  0
  3  4  2  0
  4  5  1  0
  5  6  2  0
  6  7  1  0
  7  8  2  0
  8  9  1  0
  9 10  2  0
 10 11  1  0
 11 12  2  0
 12 13  1  0
 13 14  1  0
 14 15  1  0
 15 16  2  0
 16 17  1  0
 17 18  2  0
 18 19  1  0
 19 20  2  0
 20 21  1  0
 21 22  2  0
 22 23  1  0
 23 24  1  0
 24 25  2  0
 25 26  1  0
 26 27  2  0
 27 28  1  0
 27 29  1  0
 29 30  2  0
 29 31  1  0
 18 32  1  0
 32 33  2  0
 12  3  1  0
 33 15  1  0
 23 19  1  0
 31 24  1  0
M  END
>  <Title>  (124) 
idAAETgen8

$$$$

     RDKit          2D

 39 44  0  0  0  0  0  0  0  0999 V2000
   -5.6321   10.5120    0.0000 C   0  0  0  0  0  0  0  0  0  0  0  0
   -4.4186    9.6303    0.0000 C   0  0  0  0  0  0  0  0  0  0  0  0
   -3.0483   10.2405    0.0000 C   0  0  0  0  0  0  0  0  0  0  0  0
   -1.8348    9.3588    0.0000 C   0  0  0  0  0  0  0  0  0  0  0  0
   -1.9916    7.8670    0.0000 C   0  0  0  0  0  0  0  0  0  0  0  0
   -0.7780    6.9853    0.0000 C   0  0  0  0  0  0  0  0  0  0  0  0
    0.6485    7.4488    0.0000 N   0  0  0  0  0  0  0  0  0  0  0  0
    1.5302    6.2353    0.0000 N   0  0  0  0  0  0  0  0  0  0  0  0
    0.6485    5.0218    0.0000 N   0  0  0  0  0  0  0  0  0  0  0  0
   -0.7780    5.4853    0.0000 N   0  0  0  0  0  0  0  0  0  0  0  0
   -1.9916    4.6036    0.0000 C   0  0  0  0  0  0  0  0  0  0  0  0
   -3.4182    5.0672    0.0000 N   0  0  0  0  0  0  0  0  0  0  0  0
   -4.2998    3.8536    0.0000 C   0  0  0  0  0  0  0  0  0  0  0  0
   -5.7998    3.8536    0.0000 N   0  0  0  0  0  0  0  0  0  0  0  0
   -6.5498    2.5546    0.0000 N   0  0  0  0  0  0  0  0  0  0  0  0
   -3.4182    2.6401    0.0000 N   0  0  0  0  0  0  0  0  0  0  0  0
   -1.9916    3.1036    0.0000 N   0  0  0  0  0  0  0  0  0  0  0  0
   -0.7780    2.2220    0.0000 C   0  0  0  0  0  0  0  0  0  0  0  0
   -0.9348    0.7302    0.0000 C   0  0  0  0  0  0  0  0  0  0  0  0
    0.2787   -0.1515    0.0000 C   0  0  0  0  0  0  0  0  0  0  0  0
    1.6490    0.4586    0.0000 C   0  0  0  0  0  0  0  0  0  0  0  0
    2.8625   -0.4231    0.0000 C   0  0  0  0  0  0  0  0  0  0  0  0
    2.7057   -1.9149    0.0000 O   0  0  0  0  0  0  0  0  0  0  0  0
    4.2329    0.1870    0.0000 N   0  0  0  0  0  0  0  0  0  0  0  0
    5.4464   -0.6946    0.0000 C   0  0  0  0  0  0  0  0  0  0  0  0
    5.4464   -2.1946    0.0000 N   0  0  0  0  0  0  0  0  0  0  0  0
    6.8730   -2.6582    0.0000 N   0  0  0  0  0  0  0  0  0  0  0  0
    7.7546   -1.4446    0.0000 N   0  0  0  0  0  0  0  0  0  0  0  0
    6.8730   -0.2311    0.0000 N   0  0  0  0  0  0  0  0  0  0  0  0
    7.3365    1.1955    0.0000 C   0  0  0  0  0  0  0  0  0  0  0  0
    8.8037    1.5073    0.0000 C   0  0  0  0  0  0  0  0  0  0  0  0
    9.2672    2.9339    0.0000 C   0  0  0  0  0  0  0  0  0  0  0  0
    8.2635    4.0486    0.0000 C   0  0  0  0  0  0  0  0  0  0  0  0
    6.7963    3.7368    0.0000 C   0  0  0  0  0  0  0  0  0  0  0  0
    6.3328    2.3102    0.0000 C   0  0  0  0  0  0  0  0  0  0  0  0
    1.8058    1.9504    0.0000 C   0  0  0  0  0  0  0  0  0  0  0  0
    0.5923    2.8321    0.0000 C   0  0  0  0  0  0  0  0  0  0  0  0
   -3.3619    7.2569    0.0000 C   0  0  0  0  0  0  0  0  0  0  0  0
   -4.5754    8.1386    0.0000 C   0  0  0  0  0  0  0  0  0  0  0  0
  1  2  1  0
  2  3  2  0
  3  4  1  0
  4  5  2  0
  5  6  1  0
  6  7  2  0
  7  8  1  0
  8  9  2  0
  9 10  1  0
 10 11  1  0
 11 12  1  0
 12 13  1  0
 13 14  1  0
 14 15  1  0
 13 16  1  0
 16 17  1  0
 17 18  1  0
 18 19  2  0
 19 20  1  0
 20 21  2  0
 21 22  1  0
 22 23  2  0
 22 24  1  0
 24 25  1  0
 25 26  2  0
 26 27  1  0
 27 28  2  0
 28 29  1  0
 29 30  1  0
 30 31  2  0
 31 32  1  0
 32 33  2  0
 33 34  1  0
 34 35  2  0
 21 36  1  0
 36 37  2  0
  5 38  1  0
 38 39  2  0
 39  2  1  0
 10  6  1  0
 17 11  1  0
 37 18  1  0
 29 25  1  0
 35 30  1  0
M  END
>  <Title>  (125) 
idAAEUgen8

$$$$

     RDKit          2D

 18 18  0  0  0  0  0  0  0  0999 V2000
    7.1205   -1.2990    0.0000 C   0  0  0  0  0  0  0  0  0  0  0  0
    5.6205   -1.2990    0.0000 C   0  0  0  0  0  0  0  0  0  0  0  0
    4.8705   -2.5981    0.0000 O   0  0  0  0  0  0  0  0  0  0  0  0
    4.8705    0.0000    0.0000 O   0  0  0  0  0  0  0  0  0  0  0  0
    3.3705    0.0000    0.0000 C   0  0  0  0  0  0  0  0  0  0  0  0
    3.0367   -1.4624    0.0000 C   0  0  0  0  0  0  0  0  0  0  0  0
    2.1015   -2.6351    0.0000 C   0  0  0  0  0  0  0  0  0  0  0  0
    0.7500   -3.2860    0.0000 C   0  0  0  0  0  0  0  0  0  0  0  0
   -0.7500   -3.2860    0.0000 C   0  0  0  0  0  0  0  0  0  0  0  0
   -2.1015   -2.6351    0.0000 C   0  0  0  0  0  0  0  0  0  0  0  0
   -3.0367   -1.4624    0.0000 C   0  0  0  0  0  0  0  0  0  0  0  0
   -3.3705    0.0000    0.0000 C   0  0  0  0  0  0  0  0  0  0  0  0
   -3.0367    1.4624    0.0000 C   0  0  0  0  0  0  0  0  0  0  0  0
   -2.1015    2.6351    0.0000 C   0  0  0  0  0  0  0  0  0  0  0  0
   -0.7500    3.2860    0.0000 C   0  0  0  0  0  0  0  0  0  0  0  0
    0.7500    3.2860    0.0000 C   0  0  0  0  0  0  0  0  0  0  0  0
    2.1015    2.6351    0.0000 C   0  0  0  0  0  0  0  0  0  0  0  0
    3.0367    1.4624    0.0000 C   0  0  0  0  0  0  0  0  0  0  0  0
  1  2  1  0
  2  3  2  0
  2  4  1  0
  4  5  1  0
  5  6  2  0
  6  7  1  0
  7  8  2  0
  8  9  1  0
  9 10  2  0
 10 11  1  0
 11 12  2  0
 12 13  1  0
 13 14  2  0
 14 15  1  0
 15 16  2  0
 16 17  1  0
 17 18  2  0
 18  5  1  0
M  END
>  <Title>  (126) 
idAAEVgen8

$$$$

     RDKit          2D

 35 39  0  0  0  0  0  0  0  0999 V2000
    3.0000    0.0000    0.0000 C   0  0  0  0  0  0  0  0  0  0  0  0
    1.5000    0.0000    0.0000 C   0  0  0  0  0  0  0  0  0  0  0  0
    0.7500   -1.2990    0.0000 C   0  0  0  0  0  0  0  0  0  0  0  0
   -0.7500   -1.2990    0.0000 C   0  0  0  0  0  0  0  0  0  0  0  0
   -1.5000    0.0000    0.0000 C   0  0  0  0  0  0  0  0  0  0  0  0
   -3.0000    0.0000    0.0000 C   0  0  0  0  0  0  0  0  0  0  0  0
   -3.7500    1.2990    0.0000 C   0  0  0  0  0  0  0  0  0  0  0  0
   -5.2500    1.2990    0.0000 C   0  0  0  0  0  0  0  0  0  0  0  0
   -6.0000    0.0000    0.0000 C   0  0  0  0  0  0  0  0  0  0  0  0
   -7.5000    0.0000    0.0000 C   0  0  0  0  0  0  0  0  0  0  0  0
   -8.2500    1.2990    0.0000 C   0  0  0  0  0  0  0  0  0  0  0  0
   -9.7500    1.2990    0.0000 C   0  0  0  0  0  0  0  0  0  0  0  0
  -10.5000    0.0000    0.0000 C   0  0  0  0  0  0  0  0  0  0  0  0
   -9.7500   -1.2990    0.0000 C   0  0  0  0  0  0  0  0  0  0  0  0
   -8.2500   -1.2990    0.0000 C   0  0  0  0  0  0  0  0  0  0  0  0
   -7.5000   -2.5981    0.0000 N   0  0  0  0  0  0  0  0  0  0  0  0
   -6.0082   -2.7549    0.0000 N   0  0  0  0  0  0  0  0  0  0  0  0
   -5.6963   -4.2221    0.0000 N   0  0  0  0  0  0  0  0  0  0  0  0
   -6.9954   -4.9721    0.0000 N   0  0  0  0  0  0  0  0  0  0  0  0
   -8.1101   -3.9684    0.0000 C   0  0  0  0  0  0  0  0  0  0  0  0
   -9.5773   -4.2803    0.0000 N   0  0  0  0  0  0  0  0  0  0  0  0
  -10.0409   -5.7068    0.0000 C   0  0  0  0  0  0  0  0  0  0  0  0
   -9.0372   -6.8216    0.0000 O   0  0  0  0  0  0  0  0  0  0  0  0
  -11.5081   -6.0187    0.0000 C   0  0  0  0  0  0  0  0  0  0  0  0
  -12.5118   -4.9040    0.0000 C   0  0  0  0  0  0  0  0  0  0  0  0
  -13.9790   -5.2159    0.0000 C   0  0  0  0  0  0  0  0  0  0  0  0
  -14.4425   -6.6424    0.0000 C   0  0  0  0  0  0  0  0  0  0  0  0
  -15.9097   -6.9543    0.0000 C   0  0  0  0  0  0  0  0  0  0  0  0
  -13.4388   -7.7572    0.0000 N   0  0  0  0  0  0  0  0  0  0  0  0
  -11.9716   -7.4453    0.0000 C   0  0  0  0  0  0  0  0  0  0  0  0
  -10.9679   -8.5600    0.0000 O   0  0  0  0  0  0  0  0  0  0  0  0
   -5.2500   -1.2990    0.0000 C   0  0  0  0  0  0  0  0  0  0  0  0
   -3.7500   -1.2990    0.0000 C   0  0  0  0  0  0  0  0  0  0  0  0
   -0.7500    1.2990    0.0000 C   0  0  0  0  0  0  0  0  0  0  0  0
    0.7500    1.2990    0.0000 C   0  0  0  0  0  0  0  0  0  0  0  0
  1  2  1  0
  2  3  2  0
  3  4  1  0
  4  5  2  0
  5  6  1  0
  6  7  2  0
  7  8  1  0
  8  9  2  0
  9 10  1  0
 10 11  2  0
 11 12  1  0
 12 13  2  0
 13 14  1  0
 14 15  2  0
 15 16  1  0
 16 17  1  0
 17 18  2  0
 18 19  1  0
 19 20  2  0
 20 21  1  0
 21 22  1  0
 22 23  2  0
 22 24  1  0
 24 25  2  0
 25 26  1  0
 26 27  2  0
 27 28  1  0
 27 29  1  0
 29 30  1  0
 30 31  2  0
  9 32  1  0
 32 33  2  0
  5 34  1  0
 34 35  1  0
 35  2  1  0
 33  6  1  0
 15 10  1  0
 20 16  1  0
 30 24  1  0
M  END
>  <Title>  (127) 
idAAEWgen8

$$$$

     RDKit          2D

 10 10  0  0  0  0  0  0  0  0999 V2000
    3.4598   -0.0000    0.0000 C   0  0  0  0  0  0  0  0  0  0  0  0
    1.9598    0.0000    0.0000 C   0  0  0  0  0  0  0  0  0  0  0  0
    1.3858   -1.3858    0.0000 C   0  0  0  0  0  0  0  0  0  0  0  0
   -0.0000   -1.9598    0.0000 C   0  0  0  0  0  0  0  0  0  0  0  0
   -1.3858   -1.3858    0.0000 C   0  0  0  0  0  0  0  0  0  0  0  0
   -1.9598    0.0000    0.0000 C   0  0  0  0  0  0  0  0  0  0  0  0
   -1.3858    1.3858    0.0000 C   0  0  0  0  0  0  0  0  0  0  0  0
   -2.4465    2.4465    0.0000 O   0  0  0  0  0  0  0  0  0  0  0  0
    0.0000    1.9598    0.0000 C   0  0  0  0  0  0  0  0  0  0  0  0
    1.3858    1.3858    0.0000 C   0  0  0  0  0  0  0  0  0  0  0  0
  1  2  1  0
  2  3  2  0
  3  4  1  0
  4  5  2  0
  5  6  1  0
  6  7  2  0
  7  8  1  0
  7  9  1  0
  9 10  2  0
 10  2  1  0
M  END
>  <Title>  (128) 
idAAEXgen8

$$$$

     RDKit          2D

 39 42  0  0  0  0  0  0  0  0999 V2000
    3.7500    1.2990    0.0000 C   0  0  0  0  0  0  0  0  0  0  0  0
    3.0000    0.0000    0.0000 O   0  0  0  0  0  0  0  0  0  0  0  0
    1.5000    0.0000    0.0000 C   0  0  0  0  0  0  0  0  0  0  0  0
    0.7500    1.2990    0.0000 C   0  0  0  0  0  0  0  0  0  0  0  0
   -0.7500    1.2990    0.0000 C   0  0  0  0  0  0  0  0  0  0  0  0
   -1.5000    0.0000    0.0000 C   0  0  0  0  0  0  0  0  0  0  0  0
   -3.0000    0.0000    0.0000 N   0  0  0  0  0  0  0  0  0  0  0  0
   -3.8817   -1.2135    0.0000 N   0  0  0  0  0  0  0  0  0  0  0  0
   -5.3083   -0.7500    0.0000 N   0  0  0  0  0  0  0  0  0  0  0  0
   -5.3083    0.7500    0.0000 N   0  0  0  0  0  0  0  0  0  0  0  0
   -3.8817    1.2135    0.0000 C   0  0  0  0  0  0  0  0  0  0  0  0
   -3.4182    2.6401    0.0000 C   0  0  0  0  0  0  0  0  0  0  0  0
   -2.0816    3.3211    0.0000 C   0  0  0  0  0  0  0  0  0  0  0  0
   -0.6551    2.8576    0.0000 O   0  0  0  0  0  0  0  0  0  0  0  0
   -2.7626    4.6576    0.0000 C   0  0  0  0  0  0  0  0  0  0  0  0
   -3.4436    5.9941    0.0000 C   0  0  0  0  0  0  0  0  0  0  0  0
   -1.4261    5.3386    0.0000 C   0  0  0  0  0  0  0  0  0  0  0  0
   -0.1681    4.5216    0.0000 O   0  0  0  0  0  0  0  0  0  0  0  0
   -1.3476    6.8365    0.0000 N   0  0  0  0  0  0  0  0  0  0  0  0
   -0.0111    7.5175    0.0000 C   0  0  0  0  0  0  0  0  0  0  0  0
    1.2469    6.7006    0.0000 O   0  0  0  0  0  0  0  0  0  0  0  0
    0.0674    9.0155    0.0000 N   0  0  0  0  0  0  0  0  0  0  0  0
    1.4039    9.6965    0.0000 C   0  0  0  0  0  0  0  0  0  0  0  0
    2.6619    8.8795    0.0000 O   0  0  0  0  0  0  0  0  0  0  0  0
    1.4824   11.1944    0.0000 C   0  0  0  0  0  0  0  0  0  0  0  0
    2.8189   11.8754    0.0000 C   0  0  0  0  0  0  0  0  0  0  0  0
    2.8974   13.3733    0.0000 C   0  0  0  0  0  0  0  0  0  0  0  0
    1.6394   14.1903    0.0000 C   0  0  0  0  0  0  0  0  0  0  0  0
    0.3029   13.5093    0.0000 C   0  0  0  0  0  0  0  0  0  0  0  0
    0.2244   12.0114    0.0000 C   0  0  0  0  0  0  0  0  0  0  0  0
   -4.0991    3.9766    0.0000 C   0  0  0  0  0  0  0  0  0  0  0  0
   -5.5257    4.4401    0.0000 C   0  0  0  0  0  0  0  0  0  0  0  0
   -5.8376    5.9074    0.0000 N   0  0  0  0  0  0  0  0  0  0  0  0
   -7.2642    6.3709    0.0000 C   0  0  0  0  0  0  0  0  0  0  0  0
   -7.5760    7.8381    0.0000 C   0  0  0  0  0  0  0  0  0  0  0  0
   -8.3789    5.3672    0.0000 C   0  0  0  0  0  0  0  0  0  0  0  0
   -0.7500   -1.2990    0.0000 C   0  0  0  0  0  0  0  0  0  0  0  0
   -1.5000   -2.5981    0.0000 O   0  0  0  0  0  0  0  0  0  0  0  0
    0.7500   -1.2990    0.0000 N   0  0  0  0  0  0  0  0  0  0  0  0
  1  2  1  0
  2  3  1  0
  3  4  2  0
  4  5  1  0
  5  6  2  0
  6  7  1  0
  7  8  1  0
  8  9  2  0
  9 10  1  0
 10 11  2  0
 11 12  1  0
 12 13  1  0
 13 14  2  0
 13 15  1  0
 15 16  1  0
 15 17  1  0
 17 18  2  0
 17 19  1  0
 19 20  1  0
 20 21  2  0
 20 22  1  0
 22 23  1  0
 23 24  2  0
 23 25  1  0
 25 26  2  0
 26 27  1  0
 27 28  2  0
 28 29  1  0
 29 30  2  0
 15 31  1  0
 31 32  1  0
 32 33  1  0
 33 34  1  0
 34 35  1  0
 34 36  1  0
  6 37  1  0
 37 38  2  0
 37 39  1  0
 39  3  1  0
 11  7  1  0
 31 12  1  0
 30 25  1  0
M  END
>  <Title>  (129) 
idAAEYgen8

$$$$

     RDKit          2D

 61 69  0  0  0  0  0  0  0  0999 V2000
   -2.7892   11.5536    0.0000 C   0  0  0  0  0  0  0  0  0  0  0  0
   -3.6413   10.3192    0.0000 C   0  0  0  0  0  0  0  0  0  0  0  0
   -5.1364   10.4399    0.0000 C   0  0  0  0  0  0  0  0  0  0  0  0
   -5.9885    9.2054    0.0000 C   0  0  0  0  0  0  0  0  0  0  0  0
   -5.3455    7.8502    0.0000 C   0  0  0  0  0  0  0  0  0  0  0  0
   -6.1976    6.6157    0.0000 C   0  0  0  0  0  0  0  0  0  0  0  0
   -7.6972    6.5795    0.0000 N   0  0  0  0  0  0  0  0  0  0  0  0
   -8.1261    5.1421    0.0000 N   0  0  0  0  0  0  0  0  0  0  0  0
   -6.8916    4.2900    0.0000 N   0  0  0  0  0  0  0  0  0  0  0  0
   -5.6997    5.2008    0.0000 N   0  0  0  0  0  0  0  0  0  0  0  0
   -4.2624    4.7718    0.0000 C   0  0  0  0  0  0  0  0  0  0  0  0
   -3.5019    6.0648    0.0000 C   0  0  0  0  0  0  0  0  0  0  0  0
   -2.2277    6.8563    0.0000 C   0  0  0  0  0  0  0  0  0  0  0  0
   -0.7317    6.9649    0.0000 C   0  0  0  0  0  0  0  0  0  0  0  0
   -0.4791    8.4435    0.0000 C   0  0  0  0  0  0  0  0  0  0  0  0
   -1.3461    9.6676    0.0000 C   0  0  0  0  0  0  0  0  0  0  0  0
   -0.1220   10.5345    0.0000 C   0  0  0  0  0  0  0  0  0  0  0  0
    0.7450    9.3104    0.0000 C   0  0  0  0  0  0  0  0  0  0  0  0
    2.2235    9.0579    0.0000 C   0  0  0  0  0  0  0  0  0  0  0  0
    3.1815   10.2121    0.0000 C   0  0  0  0  0  0  0  0  0  0  0  0
    4.6601    9.9596    0.0000 C   0  0  0  0  0  0  0  0  0  0  0  0
    5.1807    8.5528    0.0000 C   0  0  0  0  0  0  0  0  0  0  0  0
    6.6593    8.3003    0.0000 C   0  0  0  0  0  0  0  0  0  0  0  0
    7.6173    9.4545    0.0000 N   0  0  0  0  0  0  0  0  0  0  0  0
    9.0959    9.2020    0.0000 C   0  0  0  0  0  0  0  0  0  0  0  0
    9.6165    7.7952    0.0000 O   0  0  0  0  0  0  0  0  0  0  0  0
   10.0539   10.3562    0.0000 N   0  0  0  0  0  0  0  0  0  0  0  0
   11.5325   10.1037    0.0000 C   0  0  0  0  0  0  0  0  0  0  0  0
   12.4905   11.2579    0.0000 C   0  0  0  0  0  0  0  0  0  0  0  0
   13.9691   11.0054    0.0000 C   0  0  0  0  0  0  0  0  0  0  0  0
   14.4897    9.5986    0.0000 C   0  0  0  0  0  0  0  0  0  0  0  0
   13.5317    8.4444    0.0000 C   0  0  0  0  0  0  0  0  0  0  0  0
   12.0531    8.6969    0.0000 C   0  0  0  0  0  0  0  0  0  0  0  0
    4.2227    7.3986    0.0000 C   0  0  0  0  0  0  0  0  0  0  0  0
    2.7441    7.6511    0.0000 C   0  0  0  0  0  0  0  0  0  0  0  0
    0.6435    6.3659    0.0000 C   0  0  0  0  0  0  0  0  0  0  0  0
    1.5543    7.5577    0.0000 O   0  0  0  0  0  0  0  0  0  0  0  0
    1.5828    5.1963    0.0000 N   0  0  0  0  0  0  0  0  0  0  0  0
    1.8710    3.7243    0.0000 C   0  0  0  0  0  0  0  0  0  0  0  0
    3.3692    3.6518    0.0000 O   0  0  0  0  0  0  0  0  0  0  0  0
    1.4421    2.2869    0.0000 N   0  0  0  0  0  0  0  0  0  0  0  0
    0.3943    1.2135    0.0000 C   0  0  0  0  0  0  0  0  0  0  0  0
    1.2760    0.0000    0.0000 N   0  0  0  0  0  0  0  0  0  0  0  0
    0.3943   -1.2135    0.0000 N   0  0  0  0  0  0  0  0  0  0  0  0
   -1.0323   -0.7500    0.0000 N   0  0  0  0  0  0  0  0  0  0  0  0
   -1.0323    0.7500    0.0000 N   0  0  0  0  0  0  0  0  0  0  0  0
   -2.5109    1.0025    0.0000 C   0  0  0  0  0  0  0  0  0  0  0  0
   -3.0087   -0.4124    0.0000 C   0  0  0  0  0  0  0  0  0  0  0  0
   -4.5083   -0.3762    0.0000 C   0  0  0  0  0  0  0  0  0  0  0  0
   -4.9372    1.0612    0.0000 C   0  0  0  0  0  0  0  0  0  0  0  0
   -6.3522    1.5590    0.0000 C   0  0  0  0  0  0  0  0  0  0  0  0
   -7.4908    0.5826    0.0000 C   0  0  0  0  0  0  0  0  0  0  0  0
   -8.9058    1.0804    0.0000 C   0  0  0  0  0  0  0  0  0  0  0  0
   -9.1821    2.5548    0.0000 C   0  0  0  0  0  0  0  0  0  0  0  0
   -8.0435    3.5312    0.0000 C   0  0  0  0  0  0  0  0  0  0  0  0
   -6.6285    3.0334    0.0000 C   0  0  0  0  0  0  0  0  0  0  0  0
   -3.7027    1.9133    0.0000 C   0  0  0  0  0  0  0  0  0  0  0  0
   -4.3348    3.2736    0.0000 C   0  0  0  0  0  0  0  0  0  0  0  0
   -5.8069    2.9854    0.0000 O   0  0  0  0  0  0  0  0  0  0  0  0
   -3.8504    7.7295    0.0000 C   0  0  0  0  0  0  0  0  0  0  0  0
   -2.9983    8.9640    0.0000 C   0  0  0  0  0  0  0  0  0  0  0  0
  1  2  1  0
  2  3  2  0
  3  4  1  0
  4  5  2  0
  5  6  1  0
  6  7  2  0
  7  8  1  0
  8  9  2  0
  9 10  1  0
 10 11  1  0
 11 12  2  0
 12 13  1  0
 13 14  2  0
 14 15  1  0
 15 16  2  0
 16 17  1  0
 17 18  2  0
 18 19  1  0
 19 20  2  0
 20 21  1  0
 21 22  2  0
 22 23  1  0
 23 24  1  0
 24 25  1  0
 25 26  2  0
 25 27  1  0
 27 28  1  0
 28 29  2  0
 29 30  1  0
 30 31  2  0
 31 32  1  0
 32 33  2  0
 22 34  1  0
 34 35  2  0
 14 36  1  0
 36 37  2  0
 36 38  1  0
 38 39  1  0
 39 40  2  0
 39 41  1  0
 41 42  1  0
 42 43  2  0
 43 44  1  0
 44 45  2  0
 45 46  1  0
 46 47  1  0
 47 48  2  0
 48 49  1  0
 49 50  2  0
 50 51  1  0
 51 52  2  0
 52 53  1  0
 53 54  2  0
 54 55  1  0
 55 56  2  0
 50 57  1  0
 57 58  1  0
 58 59  2  0
  5 60  1  0
 60 61  2  0
 61  2  1  0
 10  6  1  0
 58 11  1  0
 18 15  1  0
 35 19  1  0
 46 42  1  0
 57 47  1  0
 33 28  1  0
 56 51  1  0
M  END
>  <Title>  (130) 
idAAEZgen8

$$$$

     RDKit          2D

 40 45  0  0  0  0  0  0  0  0999 V2000
    3.0000    0.0000    0.0000 C   0  0  0  0  0  0  0  0  0  0  0  0
    1.5000    0.0000    0.0000 C   0  0  0  0  0  0  0  0  0  0  0  0
    0.7500    1.2990    0.0000 C   0  0  0  0  0  0  0  0  0  0  0  0
   -0.7500    1.2990    0.0000 C   0  0  0  0  0  0  0  0  0  0  0  0
   -1.5000    0.0000    0.0000 C   0  0  0  0  0  0  0  0  0  0  0  0
   -3.0000    0.0000    0.0000 C   0  0  0  0  0  0  0  0  0  0  0  0
   -3.8817   -1.2135    0.0000 N   0  0  0  0  0  0  0  0  0  0  0  0
   -5.3083   -0.7500    0.0000 N   0  0  0  0  0  0  0  0  0  0  0  0
   -5.3083    0.7500    0.0000 N   0  0  0  0  0  0  0  0  0  0  0  0
   -3.8817    1.2135    0.0000 N   0  0  0  0  0  0  0  0  0  0  0  0
   -3.4182    2.6401    0.0000 C   0  0  0  0  0  0  0  0  0  0  0  0
   -1.9509    2.9520    0.0000 C   0  0  0  0  0  0  0  0  0  0  0  0
   -1.4874    4.3786    0.0000 C   0  0  0  0  0  0  0  0  0  0  0  0
   -2.4911    5.4933    0.0000 C   0  0  0  0  0  0  0  0  0  0  0  0
   -2.0276    6.9199    0.0000 C   0  0  0  0  0  0  0  0  0  0  0  0
   -2.9093    8.1334    0.0000 C   0  0  0  0  0  0  0  0  0  0  0  0
   -2.0276    9.3469    0.0000 C   0  0  0  0  0  0  0  0  0  0  0  0
   -0.6010    8.8834    0.0000 C   0  0  0  0  0  0  0  0  0  0  0  0
   -0.6010    7.3834    0.0000 N   0  0  0  0  0  0  0  0  0  0  0  0
    0.6125    6.5017    0.0000 C   0  0  0  0  0  0  0  0  0  0  0  0
    0.4557    5.0099    0.0000 C   0  0  0  0  0  0  0  0  0  0  0  0
    1.6693    4.1283    0.0000 C   0  0  0  0  0  0  0  0  0  0  0  0
    3.0396    4.7384    0.0000 C   0  0  0  0  0  0  0  0  0  0  0  0
    3.1964    6.2301    0.0000 C   0  0  0  0  0  0  0  0  0  0  0  0
    1.9829    7.1118    0.0000 C   0  0  0  0  0  0  0  0  0  0  0  0
   -3.9583    5.1814    0.0000 C   0  0  0  0  0  0  0  0  0  0  0  0
   -4.4218    3.7548    0.0000 C   0  0  0  0  0  0  0  0  0  0  0  0
   -5.8891    3.4430    0.0000 C   0  0  0  0  0  0  0  0  0  0  0  0
   -6.8928    4.5577    0.0000 C   0  0  0  0  0  0  0  0  0  0  0  0
   -8.3600    4.2458    0.0000 C   0  0  0  0  0  0  0  0  0  0  0  0
   -8.8235    2.8192    0.0000 C   0  0  0  0  0  0  0  0  0  0  0  0
  -10.2907    2.5074    0.0000 C   0  0  0  0  0  0  0  0  0  0  0  0
  -10.7543    1.0808    0.0000 O   0  0  0  0  0  0  0  0  0  0  0  0
  -11.2944    3.6221    0.0000 N   0  0  0  0  0  0  0  0  0  0  0  0
  -12.7617    3.3102    0.0000 O   0  0  0  0  0  0  0  0  0  0  0  0
   -7.8198    1.7045    0.0000 C   0  0  0  0  0  0  0  0  0  0  0  0
   -6.3526    2.0164    0.0000 C   0  0  0  0  0  0  0  0  0  0  0  0
   -0.7500   -1.2990    0.0000 C   0  0  0  0  0  0  0  0  0  0  0  0
   -1.5000   -2.5981    0.0000 O   0  0  0  0  0  0  0  0  0  0  0  0
    0.7500   -1.2990    0.0000 N   0  0  0  0  0  0  0  0  0  0  0  0
  1  2  1  0
  2  3  2  0
  3  4  1  0
  4  5  2  0
  5  6  1  0
  6  7  2  0
  7  8  1  0
  8  9  2  0
  9 10  1  0
 10 11  1  0
 11 12  2  0
 12 13  1  0
 13 14  2  0
 14 15  1  0
 15 16  2  0
 16 17  1  0
 17 18  2  0
 18 19  1  0
 19 20  1  0
 20 21  2  0
 21 22  1  0
 22 23  2  0
 23 24  1  0
 24 25  2  0
 14 26  1  0
 26 27  2  0
 27 28  1  0
 28 29  2  0
 29 30  1  0
 30 31  2  0
 31 32  1  0
 32 33  2  0
 32 34  1  0
 34 35  1  0
 31 36  1  0
 36 37  1  0
  5 38  1  0
 38 39  2  0
 38 40  1  0
 40  2  1  0
 10  6  1  0
 27 11  1  0
 37 28  1  0
 19 15  1  0
 25 20  1  0
M  END
>  <Title>  (131) 
idAAFAgen8

$$$$

     RDKit          2D

 42 47  0  0  0  0  0  0  0  0999 V2000
    3.0000    0.0000    0.0000 C   0  0  0  0  0  0  0  0  0  0  0  0
    1.5000    0.0000    0.0000 C   0  0  0  0  0  0  0  0  0  0  0  0
    0.7500   -1.2990    0.0000 C   0  0  0  0  0  0  0  0  0  0  0  0
   -0.7500   -1.2990    0.0000 C   0  0  0  0  0  0  0  0  0  0  0  0
   -1.5000    0.0000    0.0000 C   0  0  0  0  0  0  0  0  0  0  0  0
   -3.0000    0.0000    0.0000 C   0  0  0  0  0  0  0  0  0  0  0  0
   -3.8817   -1.2135    0.0000 N   0  0  0  0  0  0  0  0  0  0  0  0
   -5.3083   -0.7500    0.0000 N   0  0  0  0  0  0  0  0  0  0  0  0
   -5.3083    0.7500    0.0000 N   0  0  0  0  0  0  0  0  0  0  0  0
   -3.8817    1.2135    0.0000 N   0  0  0  0  0  0  0  0  0  0  0  0
   -3.4182    2.6401    0.0000 C   0  0  0  0  0  0  0  0  0  0  0  0
   -1.9509    2.9520    0.0000 C   0  0  0  0  0  0  0  0  0  0  0  0
   -1.4874    4.3786    0.0000 C   0  0  0  0  0  0  0  0  0  0  0  0
   -2.4911    5.4933    0.0000 C   0  0  0  0  0  0  0  0  0  0  0  0
   -2.0276    6.9199    0.0000 C   0  0  0  0  0  0  0  0  0  0  0  0
   -3.0313    8.0346    0.0000 O   0  0  0  0  0  0  0  0  0  0  0  0
   -0.5604    7.2317    0.0000 N   0  0  0  0  0  0  0  0  0  0  0  0
   -0.0968    8.6583    0.0000 C   0  0  0  0  0  0  0  0  0  0  0  0
   -0.9785    9.8718    0.0000 N   0  0  0  0  0  0  0  0  0  0  0  0
   -0.0968   11.0854    0.0000 N   0  0  0  0  0  0  0  0  0  0  0  0
    1.3298   10.6218    0.0000 N   0  0  0  0  0  0  0  0  0  0  0  0
    1.3298    9.1218    0.0000 N   0  0  0  0  0  0  0  0  0  0  0  0
    2.5433    8.2402    0.0000 C   0  0  0  0  0  0  0  0  0  0  0  0
    2.3865    6.7484    0.0000 C   0  0  0  0  0  0  0  0  0  0  0  0
    3.6000    5.8667    0.0000 C   0  0  0  0  0  0  0  0  0  0  0  0
    4.9703    6.4768    0.0000 C   0  0  0  0  0  0  0  0  0  0  0  0
    5.1271    7.9686    0.0000 C   0  0  0  0  0  0  0  0  0  0  0  0
    3.9136    8.8503    0.0000 C   0  0  0  0  0  0  0  0  0  0  0  0
   -3.9583    5.1814    0.0000 C   0  0  0  0  0  0  0  0  0  0  0  0
   -4.4218    3.7548    0.0000 C   0  0  0  0  0  0  0  0  0  0  0  0
   -5.8891    3.4430    0.0000 C   0  0  0  0  0  0  0  0  0  0  0  0
   -6.8928    4.5577    0.0000 C   0  0  0  0  0  0  0  0  0  0  0  0
   -8.3600    4.2458    0.0000 C   0  0  0  0  0  0  0  0  0  0  0  0
   -8.8235    2.8192    0.0000 C   0  0  0  0  0  0  0  0  0  0  0  0
  -10.2907    2.5074    0.0000 C   0  0  0  0  0  0  0  0  0  0  0  0
  -10.7543    1.0808    0.0000 O   0  0  0  0  0  0  0  0  0  0  0  0
  -11.2944    3.6221    0.0000 N   0  0  0  0  0  0  0  0  0  0  0  0
  -12.7617    3.3102    0.0000 O   0  0  0  0  0  0  0  0  0  0  0  0
   -7.8198    1.7045    0.0000 C   0  0  0  0  0  0  0  0  0  0  0  0
   -6.3526    2.0164    0.0000 C   0  0  0  0  0  0  0  0  0  0  0  0
   -0.7500    1.2990    0.0000 C   0  0  0  0  0  0  0  0  0  0  0  0
    0.7500    1.2990    0.0000 C   0  0  0  0  0  0  0  0  0  0  0  0
  1  2  1  0
  2  3  2  0
  3  4  1  0
  4  5  2  0
  5  6  1  0
  6  7  2  0
  7  8  1  0
  8  9  2  0
  9 10  1  0
 10 11  1  0
 11 12  2  0
 12 13  1  0
 13 14  2  0
 14 15  1  0
 15 16  2  0
 15 17  1  0
 17 18  1  0
 18 19  2  0
 19 20  1  0
 20 21  2  0
 21 22  1  0
 22 23  1  0
 23 24  2  0
 24 25  1  0
 25 26  2  0
 26 27  1  0
 27 28  2  0
 14 29  1  0
 29 30  2  0
 30 31  1  0
 31 32  2  0
 32 33  1  0
 33 34  2  0
 34 35  1  0
 35 36  2  0
 35 37  1  0
 37 38  1  0
 34 39  1  0
 39 40  1  0
  5 41  1  0
 41 42  2  0
 42  2  1  0
 10  6  1  0
 30 11  1  0
 40 31  1  0
 22 18  1  0
 28 23  1  0
M  END
>  <Title>  (132) 
idAAFBgen8

$$$$

     RDKit          2D

 15 15  0  0  0  0  0  0  0  0999 V2000
    4.8705    0.0000    0.0000 C   0  0  0  0  0  0  0  0  0  0  0  0
    3.3705    0.0000    0.0000 C   0  0  0  0  0  0  0  0  0  0  0  0
    3.0367   -1.4624    0.0000 C   0  0  0  0  0  0  0  0  0  0  0  0
    2.1015   -2.6351    0.0000 C   0  0  0  0  0  0  0  0  0  0  0  0
    0.7500   -3.2860    0.0000 C   0  0  0  0  0  0  0  0  0  0  0  0
   -0.7500   -3.2860    0.0000 C   0  0  0  0  0  0  0  0  0  0  0  0
   -2.1015   -2.6351    0.0000 C   0  0  0  0  0  0  0  0  0  0  0  0
   -3.0367   -1.4624    0.0000 C   0  0  0  0  0  0  0  0  0  0  0  0
   -3.3705    0.0000    0.0000 C   0  0  0  0  0  0  0  0  0  0  0  0
   -3.0367    1.4624    0.0000 C   0  0  0  0  0  0  0  0  0  0  0  0
   -2.1015    2.6351    0.0000 C   0  0  0  0  0  0  0  0  0  0  0  0
   -0.7500    3.2860    0.0000 C   0  0  0  0  0  0  0  0  0  0  0  0
    0.7500    3.2860    0.0000 C   0  0  0  0  0  0  0  0  0  0  0  0
    2.1015    2.6351    0.0000 C   0  0  0  0  0  0  0  0  0  0  0  0
    3.0367    1.4624    0.0000 N   0  0  0  0  0  0  0  0  0  0  0  0
  1  2  1  0
  2  3  2  0
  3  4  1  0
  4  5  2  0
  5  6  1  0
  6  7  2  0
  7  8  1  0
  8  9  2  0
  9 10  1  0
 10 11  2  0
 11 12  1  0
 12 13  2  0
 13 14  1  0
 14 15  1  0
 15  2  1  0
M  END
>  <Title>  (133) 
idAAFCgen8

$$$$

     RDKit          2D

 36 40  0  0  0  0  0  0  0  0999 V2000
   -5.6536    8.0852    0.0000 C   0  0  0  0  0  0  0  0  0  0  0  0
   -4.2492    7.5581    0.0000 C   0  0  0  0  0  0  0  0  0  0  0  0
   -3.0906    8.5108    0.0000 C   0  0  0  0  0  0  0  0  0  0  0  0
   -1.6862    7.9837    0.0000 C   0  0  0  0  0  0  0  0  0  0  0  0
   -1.4405    6.5040    0.0000 C   0  0  0  0  0  0  0  0  0  0  0  0
   -0.0362    5.9769    0.0000 C   0  0  0  0  0  0  0  0  0  0  0  0
    1.1225    6.9296    0.0000 O   0  0  0  0  0  0  0  0  0  0  0  0
    0.2096    4.4972    0.0000 N   0  0  0  0  0  0  0  0  0  0  0  0
    1.6139    3.9701    0.0000 C   0  0  0  0  0  0  0  0  0  0  0  0
    2.8658    4.7965    0.0000 N   0  0  0  0  0  0  0  0  0  0  0  0
    4.0385    3.8613    0.0000 N   0  0  0  0  0  0  0  0  0  0  0  0
    3.5115    2.4569    0.0000 N   0  0  0  0  0  0  0  0  0  0  0  0
    2.0130    2.5242    0.0000 N   0  0  0  0  0  0  0  0  0  0  0  0
    1.0777    1.3515    0.0000 C   0  0  0  0  0  0  0  0  0  0  0  0
    1.7286    0.0000    0.0000 C   0  0  0  0  0  0  0  0  0  0  0  0
    1.0777   -1.3515    0.0000 C   0  0  0  0  0  0  0  0  0  0  0  0
   -0.3846   -1.6852    0.0000 N   0  0  0  0  0  0  0  0  0  0  0  0
   -1.5574   -0.7500    0.0000 N   0  0  0  0  0  0  0  0  0  0  0  0
   -2.9088   -1.4008    0.0000 C   0  0  0  0  0  0  0  0  0  0  0  0
   -3.0209   -2.8966    0.0000 O   0  0  0  0  0  0  0  0  0  0  0  0
   -4.1482   -0.5558    0.0000 N   0  0  0  0  0  0  0  0  0  0  0  0
   -5.4997   -1.2067    0.0000 C   0  0  0  0  0  0  0  0  0  0  0  0
   -5.7675   -2.6826    0.0000 N   0  0  0  0  0  0  0  0  0  0  0  0
   -7.2539   -2.8839    0.0000 N   0  0  0  0  0  0  0  0  0  0  0  0
   -7.9047   -1.5325    0.0000 N   0  0  0  0  0  0  0  0  0  0  0  0
   -6.8205   -0.4959    0.0000 N   0  0  0  0  0  0  0  0  0  0  0  0
   -7.0219    0.9906    0.0000 C   0  0  0  0  0  0  0  0  0  0  0  0
   -5.8353    1.9081    0.0000 C   0  0  0  0  0  0  0  0  0  0  0  0
   -6.0366    3.3946    0.0000 C   0  0  0  0  0  0  0  0  0  0  0  0
   -7.4246    3.9634    0.0000 C   0  0  0  0  0  0  0  0  0  0  0  0
   -8.6112    3.0458    0.0000 C   0  0  0  0  0  0  0  0  0  0  0  0
   -8.4099    1.5594    0.0000 C   0  0  0  0  0  0  0  0  0  0  0  0
   -1.5574    0.7500    0.0000 C   0  0  0  0  0  0  0  0  0  0  0  0
   -0.3846    1.6852    0.0000 C   0  0  0  0  0  0  0  0  0  0  0  0
   -2.5991    5.5513    0.0000 C   0  0  0  0  0  0  0  0  0  0  0  0
   -4.0035    6.0784    0.0000 C   0  0  0  0  0  0  0  0  0  0  0  0
  1  2  1  0
  2  3  2  0
  3  4  1  0
  4  5  2  0
  5  6  1  0
  6  7  2  0
  6  8  1  0
  8  9  1  0
  9 10  2  0
 10 11  1  0
 11 12  2  0
 12 13  1  0
 13 14  1  0
 14 15  2  0
 15 16  1  0
 16 17  2  0
 17 18  1  0
 18 19  1  0
 19 20  2  0
 19 21  1  0
 21 22  1  0
 22 23  2  0
 23 24  1  0
 24 25  2  0
 25 26  1  0
 26 27  1  0
 27 28  2  0
 28 29  1  0
 29 30  2  0
 30 31  1  0
 31 32  2  0
 18 33  1  0
 33 34  2  0
  5 35  1  0
 35 36  2  0
 36  2  1  0
 13  9  1  0
 34 14  1  0
 26 22  1  0
 32 27  1  0
M  END
>  <Title>  (134) 
idAAFDgen8

$$$$

     RDKit          2D

 39 45  0  0  0  0  0  0  0  0999 V2000
   -9.6884    3.9227    0.0000 C   0  0  0  0  0  0  0  0  0  0  0  0
   -8.3570    4.6136    0.0000 C   0  0  0  0  0  0  0  0  0  0  0  0
   -8.2897    6.1121    0.0000 C   0  0  0  0  0  0  0  0  0  0  0  0
   -6.9584    6.8031    0.0000 C   0  0  0  0  0  0  0  0  0  0  0  0
   -5.6943    5.9956    0.0000 C   0  0  0  0  0  0  0  0  0  0  0  0
   -4.3629    6.6865    0.0000 C   0  0  0  0  0  0  0  0  0  0  0  0
   -4.1393    8.1698    0.0000 N   0  0  0  0  0  0  0  0  0  0  0  0
   -2.6596    8.4155    0.0000 N   0  0  0  0  0  0  0  0  0  0  0  0
   -1.9686    7.0841    0.0000 N   0  0  0  0  0  0  0  0  0  0  0  0
   -3.0213    6.0156    0.0000 N   0  0  0  0  0  0  0  0  0  0  0  0
   -2.7756    4.5358    0.0000 C   0  0  0  0  0  0  0  0  0  0  0  0
   -3.9342    3.5831    0.0000 C   0  0  0  0  0  0  0  0  0  0  0  0
   -3.6885    2.1034    0.0000 C   0  0  0  0  0  0  0  0  0  0  0  0
   -2.2841    1.5763    0.0000 C   0  0  0  0  0  0  0  0  0  0  0  0
   -2.4186    3.0703    0.0000 C   0  0  0  0  0  0  0  0  0  0  0  0
   -1.3344    4.1069    0.0000 C   0  0  0  0  0  0  0  0  0  0  0  0
    0.1520    3.9056    0.0000 C   0  0  0  0  0  0  0  0  0  0  0  0
    0.9784    5.1574    0.0000 O   0  0  0  0  0  0  0  0  0  0  0  0
    0.9214    2.6179    0.0000 C   0  0  0  0  0  0  0  0  0  0  0  0
    2.4153    2.7523    0.0000 C   0  0  0  0  0  0  0  0  0  0  0  0
    3.0459    4.1134    0.0000 C   0  0  0  0  0  0  0  0  0  0  0  0
    4.5398    4.2478    0.0000 C   0  0  0  0  0  0  0  0  0  0  0  0
    5.3092    5.5355    0.0000 C   0  0  0  0  0  0  0  0  0  0  0  0
    6.7716    5.2017    0.0000 C   0  0  0  0  0  0  0  0  0  0  0  0
    6.9060    3.7078    0.0000 C   0  0  0  0  0  0  0  0  0  0  0  0
    5.5267    3.1182    0.0000 C   0  0  0  0  0  0  0  0  0  0  0  0
    5.1929    1.6558    0.0000 C   0  0  0  0  0  0  0  0  0  0  0  0
    3.7596    1.2137    0.0000 C   0  0  0  0  0  0  0  0  0  0  0  0
    3.4258   -0.2487    0.0000 C   0  0  0  0  0  0  0  0  0  0  0  0
    4.5254   -1.2689    0.0000 C   0  0  0  0  0  0  0  0  0  0  0  0
    5.9587   -0.8268    0.0000 C   0  0  0  0  0  0  0  0  0  0  0  0
    6.2925    0.6356    0.0000 C   0  0  0  0  0  0  0  0  0  0  0  0
    0.3943    1.2135    0.0000 N   0  0  0  0  0  0  0  0  0  0  0  0
    1.2760    0.0000    0.0000 N   0  0  0  0  0  0  0  0  0  0  0  0
    0.3943   -1.2135    0.0000 N   0  0  0  0  0  0  0  0  0  0  0  0
   -1.0323   -0.7500    0.0000 N   0  0  0  0  0  0  0  0  0  0  0  0
   -1.0323    0.7500    0.0000 C   0  0  0  0  0  0  0  0  0  0  0  0
   -5.7616    4.4971    0.0000 C   0  0  0  0  0  0  0  0  0  0  0  0
   -7.0929    3.8061    0.0000 C   0  0  0  0  0  0  0  0  0  0  0  0
  1  2  1  0
  2  3  2  0
  3  4  1  0
  4  5  2  0
  5  6  1  0
  6  7  2  0
  7  8  1  0
  8  9  2  0
  9 10  1  0
 10 11  1  0
 11 12  2  0
 12 13  1  0
 13 14  2  0
 14 15  1  0
 15 16  2  0
 16 17  1  0
 17 18  2  0
 17 19  1  0
 19 20  2  3
 20 21  1  0
 21 22  2  3
 22 23  1  0
 23 24  2  0
 24 25  1  0
 25 26  2  0
 26 27  1  0
 27 28  2  0
 28 29  1  0
 29 30  2  0
 30 31  1  0
 31 32  2  0
 19 33  1  0
 33 34  1  0
 34 35  2  0
 35 36  1  0
 36 37  2  0
  5 38  1  0
 38 39  1  0
 39  2  1  0
 10  6  1  0
 16 11  1  0
 26 22  1  0
 32 27  1  0
 37 33  1  0
 37 14  1  0
M  END
>  <Title>  (135) 
idAAFEgen8

$$$$

     RDKit          2D

 34 38  0  0  0  0  0  0  0  0999 V2000
    3.7500    1.2990    0.0000 C   0  0  0  0  0  0  0  0  0  0  0  0
    3.0000    0.0000    0.0000 O   0  0  0  0  0  0  0  0  0  0  0  0
    1.5000    0.0000    0.0000 C   0  0  0  0  0  0  0  0  0  0  0  0
    0.7500    1.2990    0.0000 C   0  0  0  0  0  0  0  0  0  0  0  0
   -0.7500    1.2990    0.0000 C   0  0  0  0  0  0  0  0  0  0  0  0
   -1.5000    0.0000    0.0000 C   0  0  0  0  0  0  0  0  0  0  0  0
   -3.0000    0.0000    0.0000 C   0  0  0  0  0  0  0  0  0  0  0  0
   -3.8817   -1.2135    0.0000 C   0  0  0  0  0  0  0  0  0  0  0  0
   -5.3083   -0.7500    0.0000 C   0  0  0  0  0  0  0  0  0  0  0  0
   -5.3083    0.7500    0.0000 N   0  0  0  0  0  0  0  0  0  0  0  0
   -3.8817    1.2135    0.0000 N   0  0  0  0  0  0  0  0  0  0  0  0
   -3.4182    2.6401    0.0000 C   0  0  0  0  0  0  0  0  0  0  0  0
   -4.2998    3.8536    0.0000 C   0  0  0  0  0  0  0  0  0  0  0  0
   -3.4182    5.0672    0.0000 C   0  0  0  0  0  0  0  0  0  0  0  0
   -1.9916    4.6036    0.0000 C   0  0  0  0  0  0  0  0  0  0  0  0
   -0.7780    5.4853    0.0000 C   0  0  0  0  0  0  0  0  0  0  0  0
    0.5923    4.8752    0.0000 O   0  0  0  0  0  0  0  0  0  0  0  0
   -0.9348    6.9771    0.0000 N   0  0  0  0  0  0  0  0  0  0  0  0
    0.2787    7.8588    0.0000 C   0  0  0  0  0  0  0  0  0  0  0  0
    1.7053    7.3952    0.0000 N   0  0  0  0  0  0  0  0  0  0  0  0
    2.5870    8.6088    0.0000 N   0  0  0  0  0  0  0  0  0  0  0  0
    1.7053    9.8223    0.0000 N   0  0  0  0  0  0  0  0  0  0  0  0
    0.2787    9.3588    0.0000 N   0  0  0  0  0  0  0  0  0  0  0  0
   -0.9348   10.2405    0.0000 C   0  0  0  0  0  0  0  0  0  0  0  0
   -2.3052    9.6303    0.0000 C   0  0  0  0  0  0  0  0  0  0  0  0
   -3.5187   10.5120    0.0000 C   0  0  0  0  0  0  0  0  0  0  0  0
   -3.3619   12.0038    0.0000 C   0  0  0  0  0  0  0  0  0  0  0  0
   -1.9916   12.6139    0.0000 C   0  0  0  0  0  0  0  0  0  0  0  0
   -0.7780   11.7322    0.0000 C   0  0  0  0  0  0  0  0  0  0  0  0
   -1.9916    3.1036    0.0000 C   0  0  0  0  0  0  0  0  0  0  0  0
   -0.7780    2.2220    0.0000 O   0  0  0  0  0  0  0  0  0  0  0  0
   -0.7500   -1.2990    0.0000 C   0  0  0  0  0  0  0  0  0  0  0  0
   -1.5000   -2.5981    0.0000 O   0  0  0  0  0  0  0  0  0  0  0  0
    0.7500   -1.2990    0.0000 N   0  0  0  0  0  0  0  0  0  0  0  0
  1  2  1  0
  2  3  1  0
  3  4  2  0
  4  5  1  0
  5  6  2  0
  6  7  1  0
  7  8  2  0
  8  9  1  0
  9 10  2  0
 10 11  1  0
 11 12  1  0
 12 13  2  0
 13 14  1  0
 14 15  2  0
 15 16  1  0
 16 17  2  0
 16 18  1  0
 18 19  1  0
 19 20  2  0
 20 21  1  0
 21 22  2  0
 22 23  1  0
 23 24  1  0
 24 25  2  0
 25 26  1  0
 26 27  2  0
 27 28  1  0
 28 29  2  0
 15 30  1  0
 30 31  2  0
  6 32  1  0
 32 33  2  0
 32 34  1  0
 34  3  1  0
 11  7  1  0
 30 12  1  0
 23 19  1  0
 29 24  1  0
M  END
>  <Title>  (136) 
idAAFFgen8

$$$$

     RDKit          2D

 49 56  0  0  0  0  0  0  0  0999 V2000
   -5.0351   -5.2557    0.0000 C   0  0  0  0  0  0  0  0  0  0  0  0
   -4.8338   -3.7693    0.0000 C   0  0  0  0  0  0  0  0  0  0  0  0
   -6.0204   -2.8517    0.0000 C   0  0  0  0  0  0  0  0  0  0  0  0
   -5.8190   -1.3652    0.0000 C   0  0  0  0  0  0  0  0  0  0  0  0
   -4.4311   -0.7964    0.0000 C   0  0  0  0  0  0  0  0  0  0  0  0
   -4.2297    0.6900    0.0000 C   0  0  0  0  0  0  0  0  0  0  0  0
   -5.3139    1.7266    0.0000 N   0  0  0  0  0  0  0  0  0  0  0  0
   -4.6631    3.0781    0.0000 N   0  0  0  0  0  0  0  0  0  0  0  0
   -3.1767    2.8767    0.0000 N   0  0  0  0  0  0  0  0  0  0  0  0
   -2.9088    1.4008    0.0000 N   0  0  0  0  0  0  0  0  0  0  0  0
   -1.5574    0.7500    0.0000 C   0  0  0  0  0  0  0  0  0  0  0  0
   -1.5574   -0.7500    0.0000 C   0  0  0  0  0  0  0  0  0  0  0  0
   -0.3846   -1.6852    0.0000 C   0  0  0  0  0  0  0  0  0  0  0  0
    1.0777   -1.3515    0.0000 C   0  0  0  0  0  0  0  0  0  0  0  0
    1.7286    0.0000    0.0000 C   0  0  0  0  0  0  0  0  0  0  0  0
    1.0777    1.3515    0.0000 C   0  0  0  0  0  0  0  0  0  0  0  0
   -0.3846    1.6852    0.0000 N   0  0  0  0  0  0  0  0  0  0  0  0
   -0.7184    3.1476    0.0000 C   0  0  0  0  0  0  0  0  0  0  0  0
   -2.0977    3.7372    0.0000 N   0  0  0  0  0  0  0  0  0  0  0  0
   -1.9633    5.2311    0.0000 N   0  0  0  0  0  0  0  0  0  0  0  0
   -0.5009    5.5649    0.0000 N   0  0  0  0  0  0  0  0  0  0  0  0
    0.2685    4.2772    0.0000 N   0  0  0  0  0  0  0  0  0  0  0  0
    1.7624    4.1428    0.0000 C   0  0  0  0  0  0  0  0  0  0  0  0
    2.3930    2.7817    0.0000 C   0  0  0  0  0  0  0  0  0  0  0  0
    3.8869    2.6473    0.0000 C   0  0  0  0  0  0  0  0  0  0  0  0
    4.7504    3.8739    0.0000 C   0  0  0  0  0  0  0  0  0  0  0  0
    6.2443    3.7394    0.0000 C   0  0  0  0  0  0  0  0  0  0  0  0
    7.2312    4.8690    0.0000 N   0  0  0  0  0  0  0  0  0  0  0  0
    8.6105    4.2795    0.0000 N   0  0  0  0  0  0  0  0  0  0  0  0
    8.4761    2.7855    0.0000 N   0  0  0  0  0  0  0  0  0  0  0  0
    7.0137    2.4517    0.0000 N   0  0  0  0  0  0  0  0  0  0  0  0
    6.4241    1.0724    0.0000 C   0  0  0  0  0  0  0  0  0  0  0  0
    4.9349    0.8933    0.0000 C   0  0  0  0  0  0  0  0  0  0  0  0
    4.3453   -0.4859    0.0000 C   0  0  0  0  0  0  0  0  0  0  0  0
    5.2451   -1.6862    0.0000 C   0  0  0  0  0  0  0  0  0  0  0  0
    6.7343   -1.5071    0.0000 C   0  0  0  0  0  0  0  0  0  0  0  0
    7.3239   -0.1278    0.0000 C   0  0  0  0  0  0  0  0  0  0  0  0
    4.1198    5.2349    0.0000 C   0  0  0  0  0  0  0  0  0  0  0  0
    2.6259    5.3694    0.0000 C   0  0  0  0  0  0  0  0  0  0  0  0
    1.9953    6.7304    0.0000 C   0  0  0  0  0  0  0  0  0  0  0  0
    2.8588    7.9570    0.0000 C   0  0  0  0  0  0  0  0  0  0  0  0
    2.2282    9.3180    0.0000 C   0  0  0  0  0  0  0  0  0  0  0  0
    0.7343    9.4525    0.0000 C   0  0  0  0  0  0  0  0  0  0  0  0
    0.1037   10.8135    0.0000 C   0  0  0  0  0  0  0  0  0  0  0  0
   -0.1292    8.2259    0.0000 C   0  0  0  0  0  0  0  0  0  0  0  0
   -1.6231    8.3603    0.0000 C   0  0  0  0  0  0  0  0  0  0  0  0
    0.5014    6.8649    0.0000 C   0  0  0  0  0  0  0  0  0  0  0  0
   -3.2445   -1.7140    0.0000 C   0  0  0  0  0  0  0  0  0  0  0  0
   -3.4458   -3.2004    0.0000 C   0  0  0  0  0  0  0  0  0  0  0  0
  1  2  1  0
  2  3  2  0
  3  4  1  0
  4  5  2  0
  5  6  1  0
  6  7  2  0
  7  8  1  0
  8  9  2  0
  9 10  1  0
 10 11  1  0
 11 12  1  0
 12 13  1  0
 13 14  1  0
 14 15  1  0
 15 16  1  0
 16 17  1  0
 17 18  1  0
 18 19  2  0
 19 20  1  0
 20 21  2  0
 21 22  1  0
 22 23  1  0
 23 24  2  0
 24 25  1  0
 25 26  2  0
 26 27  1  0
 27 28  2  0
 28 29  1  0
 29 30  2  0
 30 31  1  0
 31 32  1  0
 32 33  2  0
 33 34  1  0
 34 35  2  0
 35 36  1  0
 36 37  2  0
 26 38  1  0
 38 39  2  0
 39 40  1  0
 40 41  2  0
 41 42  1  0
 42 43  2  0
 43 44  1  0
 43 45  1  0
 45 46  1  0
 45 47  2  0
  5 48  1  0
 48 49  2  0
 49  2  1  0
 10  6  1  0
 17 11  1  0
 22 18  1  0
 39 23  1  0
 47 40  1  0
 31 27  1  0
 37 32  1  0
M  END
>  <Title>  (137) 
idAAFGgen8

$$$$

     RDKit          2D

 21 23  0  0  0  0  0  0  0  0999 V2000
    3.7500    1.2990    0.0000 C   0  0  0  0  0  0  0  0  0  0  0  0
    3.0000    0.0000    0.0000 O   0  0  0  0  0  0  0  0  0  0  0  0
    1.5000    0.0000    0.0000 C   0  0  0  0  0  0  0  0  0  0  0  0
    0.7500    1.2990    0.0000 C   0  0  0  0  0  0  0  0  0  0  0  0
   -0.7500    1.2990    0.0000 C   0  0  0  0  0  0  0  0  0  0  0  0
   -1.5000    0.0000    0.0000 C   0  0  0  0  0  0  0  0  0  0  0  0
   -3.0000    0.0000    0.0000 C   0  0  0  0  0  0  0  0  0  0  0  0
   -3.8817   -1.2135    0.0000 N   0  0  0  0  0  0  0  0  0  0  0  0
   -5.3083   -0.7500    0.0000 N   0  0  0  0  0  0  0  0  0  0  0  0
   -5.3083    0.7500    0.0000 N   0  0  0  0  0  0  0  0  0  0  0  0
   -3.8817    1.2135    0.0000 N   0  0  0  0  0  0  0  0  0  0  0  0
   -3.4182    2.6401    0.0000 C   0  0  0  0  0  0  0  0  0  0  0  0
   -4.2998    3.8536    0.0000 N   0  0  0  0  0  0  0  0  0  0  0  0
   -3.4182    5.0672    0.0000 C   0  0  0  0  0  0  0  0  0  0  0  0
   -3.8817    6.4937    0.0000 O   0  0  0  0  0  0  0  0  0  0  0  0
   -1.9916    4.6036    0.0000 N   0  0  0  0  0  0  0  0  0  0  0  0
   -1.9916    3.1036    0.0000 C   0  0  0  0  0  0  0  0  0  0  0  0
   -0.7780    2.2220    0.0000 O   0  0  0  0  0  0  0  0  0  0  0  0
   -0.7500   -1.2990    0.0000 C   0  0  0  0  0  0  0  0  0  0  0  0
   -1.5000   -2.5981    0.0000 O   0  0  0  0  0  0  0  0  0  0  0  0
    0.7500   -1.2990    0.0000 N   0  0  0  0  0  0  0  0  0  0  0  0
  1  2  1  0
  2  3  1  0
  3  4  2  0
  4  5  1  0
  5  6  2  0
  6  7  1  0
  7  8  2  0
  8  9  1  0
  9 10  2  0
 10 11  1  0
 11 12  1  0
 12 13  1  0
 13 14  1  0
 14 15  2  0
 14 16  1  0
 16 17  1  0
 17 18  2  0
  6 19  1  0
 19 20  2  0
 19 21  1  0
 21  3  1  0
 11  7  1  0
 17 12  1  0
M  END
>  <Title>  (138) 
idAAFHgen8

$$$$

     RDKit          2D

 11 11  0  0  0  0  0  0  0  0999 V2000
    5.2500   -1.2990    0.0000 C   0  0  0  0  0  0  0  0  0  0  0  0
    3.7500   -1.2990    0.0000 C   0  0  0  0  0  0  0  0  0  0  0  0
    3.0000   -2.5981    0.0000 O   0  0  0  0  0  0  0  0  0  0  0  0
    3.0000    0.0000    0.0000 O   0  0  0  0  0  0  0  0  0  0  0  0
    1.5000    0.0000    0.0000 C   0  0  0  0  0  0  0  0  0  0  0  0
    0.7500   -1.2990    0.0000 C   0  0  0  0  0  0  0  0  0  0  0  0
   -0.7500   -1.2990    0.0000 C   0  0  0  0  0  0  0  0  0  0  0  0
   -1.5000    0.0000    0.0000 C   0  0  0  0  0  0  0  0  0  0  0  0
   -0.7500    1.2990    0.0000 C   0  0  0  0  0  0  0  0  0  0  0  0
    0.7500    1.2990    0.0000 C   0  0  0  0  0  0  0  0  0  0  0  0
    1.5000    2.5981    0.0000 O   0  0  0  0  0  0  0  0  0  0  0  0
  1  2  1  0
  2  3  2  0
  2  4  1  0
  4  5  1  0
  5  6  2  0
  6  7  1  0
  7  8  2  0
  8  9  1  0
  9 10  2  0
 10 11  1  0
 10  5  1  0
M  END
>  <Title>  (139) 
idAAFIgen8

$$$$

     RDKit          2D

 60 69  0  0  0  0  0  0  0  0999 V2000
    6.4543    6.6383    0.0000 C   0  0  0  0  0  0  0  0  0  0  0  0
    4.9568    6.5526    0.0000 C   0  0  0  0  0  0  0  0  0  0  0  0
    4.1458    5.2907    0.0000 C   0  0  0  0  0  0  0  0  0  0  0  0
    2.6951    5.6721    0.0000 C   0  0  0  0  0  0  0  0  0  0  0  0
    2.6095    7.1696    0.0000 C   0  0  0  0  0  0  0  0  0  0  0  0
    1.3476    7.9806    0.0000 C   0  0  0  0  0  0  0  0  0  0  0  0
    1.2619    9.4781    0.0000 N   0  0  0  0  0  0  0  0  0  0  0  0
   -0.1888    9.8595    0.0000 N   0  0  0  0  0  0  0  0  0  0  0  0
   -0.9997    8.5976    0.0000 N   0  0  0  0  0  0  0  0  0  0  0  0
   -0.0502    7.4364    0.0000 N   0  0  0  0  0  0  0  0  0  0  0  0
   -0.4316    5.9857    0.0000 C   0  0  0  0  0  0  0  0  0  0  0  0
    0.8530    5.2111    0.0000 C   0  0  0  0  0  0  0  0  0  0  0  0
    1.5148    3.8650    0.0000 C   0  0  0  0  0  0  0  0  0  0  0  0
    1.3438    2.3747    0.0000 C   0  0  0  0  0  0  0  0  0  0  0  0
    2.7255    1.7908    0.0000 C   0  0  0  0  0  0  0  0  0  0  0  0
    4.0100    2.5654    0.0000 C   0  0  0  0  0  0  0  0  0  0  0  0
    5.1437    1.5831    0.0000 C   0  0  0  0  0  0  0  0  0  0  0  0
    4.5597    0.2015    0.0000 C   0  0  0  0  0  0  0  0  0  0  0  0
    5.3343   -1.0831    0.0000 C   0  0  0  0  0  0  0  0  0  0  0  0
    6.8341   -1.0545    0.0000 O   0  0  0  0  0  0  0  0  0  0  0  0
    4.6092   -2.3962    0.0000 N   0  0  0  0  0  0  0  0  0  0  0  0
    5.3838   -3.6807    0.0000 C   0  0  0  0  0  0  0  0  0  0  0  0
    6.8783   -3.8090    0.0000 N   0  0  0  0  0  0  0  0  0  0  0  0
    7.2180   -5.2701    0.0000 N   0  0  0  0  0  0  0  0  0  0  0  0
    5.9335   -6.0447    0.0000 N   0  0  0  0  0  0  0  0  0  0  0  0
    4.7999   -5.0624    0.0000 N   0  0  0  0  0  0  0  0  0  0  0  0
    3.3389   -5.4021    0.0000 C   0  0  0  0  0  0  0  0  0  0  0  0
    2.3141   -4.3067    0.0000 C   0  0  0  0  0  0  0  0  0  0  0  0
    0.8531   -4.6464    0.0000 C   0  0  0  0  0  0  0  0  0  0  0  0
    0.4168   -6.0816    0.0000 C   0  0  0  0  0  0  0  0  0  0  0  0
    1.4416   -7.1770    0.0000 C   0  0  0  0  0  0  0  0  0  0  0  0
    2.9026   -6.8373    0.0000 C   0  0  0  0  0  0  0  0  0  0  0  0
    3.0652    0.3298    0.0000 C   0  0  0  0  0  0  0  0  0  0  0  0
    2.0830   -0.8038    0.0000 O   0  0  0  0  0  0  0  0  0  0  0  0
    0.3943    1.2135    0.0000 C   0  0  0  0  0  0  0  0  0  0  0  0
    1.2760    0.0000    0.0000 N   0  0  0  0  0  0  0  0  0  0  0  0
    0.3943   -1.2135    0.0000 N   0  0  0  0  0  0  0  0  0  0  0  0
   -1.0323   -0.7500    0.0000 N   0  0  0  0  0  0  0  0  0  0  0  0
   -1.0323    0.7500    0.0000 N   0  0  0  0  0  0  0  0  0  0  0  0
   -2.4830    1.1313    0.0000 C   0  0  0  0  0  0  0  0  0  0  0  0
   -4.8299    4.7742    0.0000 C   0  0  0  0  0  0  0  0  0  0  0  0
   -5.3089    6.1956    0.0000 C   0  0  0  0  0  0  0  0  0  0  0  0
   -4.6425    7.5395    0.0000 C   0  0  0  0  0  0  0  0  0  0  0  0
   -3.5089    6.5572    0.0000 C   0  0  0  0  0  0  0  0  0  0  0  0
   -3.1691    5.0962    0.0000 C   0  0  0  0  0  0  0  0  0  0  0  0
   -1.9309    5.9428    0.0000 C   0  0  0  0  0  0  0  0  0  0  0  0
   -2.3945    7.3694    0.0000 O   0  0  0  0  0  0  0  0  0  0  0  0
   -3.7531    3.7145    0.0000 C   0  0  0  0  0  0  0  0  0  0  0  0
   -5.0376    2.9399    0.0000 C   0  0  0  0  0  0  0  0  0  0  0  0
   -6.5321    3.0682    0.0000 C   0  0  0  0  0  0  0  0  0  0  0  0
   -7.6657    4.0505    0.0000 C   0  0  0  0  0  0  0  0  0  0  0  0
   -8.0054    5.5115    0.0000 C   0  0  0  0  0  0  0  0  0  0  0  0
   -7.4215    6.8932    0.0000 C   0  0  0  0  0  0  0  0  0  0  0  0
   -6.1370    7.6678    0.0000 C   0  0  0  0  0  0  0  0  0  0  0  0
   -5.6346    6.5513    0.0000 N   0  0  0  0  0  0  0  0  0  0  0  0
   -5.5540    4.6002    0.0000 N   0  0  0  0  0  0  0  0  0  0  0  0
   -4.7050    4.1433    0.0000 N   0  0  0  0  0  0  0  0  0  0  0  0
   -4.3825    2.6489    0.0000 N   0  0  0  0  0  0  0  0  0  0  0  0
   -3.4973    2.2364    0.0000 N   0  0  0  0  0  0  0  0  0  0  0  0
    4.0072    7.7138    0.0000 N   0  0  0  0  0  0  0  0  0  0  0  0
  1  2  1  0
  2  3  2  0
  3  4  1  0
  4  5  2  0
  5  6  1  0
  6  7  2  0
  7  8  1  0
  8  9  2  0
  9 10  1  0
 10 11  1  0
 11 12  2  0
 12 13  1  0
 13 14  2  0
 14 15  1  0
 15 16  2  0
 16 17  1  0
 17 18  2  0
 18 19  1  0
 19 20  2  0
 19 21  1  0
 21 22  1  0
 22 23  2  0
 23 24  1  0
 24 25  2  0
 25 26  1  0
 26 27  1  0
 27 28  2  0
 28 29  1  0
 29 30  2  0
 30 31  1  0
 31 32  2  0
 18 33  1  0
 33 34  2  0
 14 35  1  0
 35 36  2  0
 36 37  1  0
 37 38  2  0
 38 39  1  0
 39 40  1  0
 40 41  2  0
 41 42  1  0
 42 43  2  0
 43 44  1  0
 44 45  2  0
 45 46  1  0
 46 47  2  0
 45 48  1  0
 48 49  2  0
 49 50  1  0
 50 51  2  0
 51 52  1  0
 52 53  2  0
 53 54  1  0
 54 55  1  0
 55 56  2  0
 56 57  1  0
 57 58  2  0
 58 59  1  0
  5 60  1  0
 60  2  1  0
 10  6  1  0
 46 11  1  0
 59 48  1  0
 33 15  1  0
 39 35  1  0
 59 40  1  0
 26 22  1  0
 32 27  1  0
 54 43  1  0
M  END
>  <Title>  (140) 
idAAFJgen8

$$$$

     RDKit          2D

  9  9  0  0  0  0  0  0  0  0999 V2000
    5.2500   -1.2990    0.0000 O   0  0  0  0  0  0  0  0  0  0  0  0
    3.7500   -1.2990    0.0000 C   0  0  0  0  0  0  0  0  0  0  0  0
    3.0000    0.0000    0.0000 C   0  0  0  0  0  0  0  0  0  0  0  0
    1.5000    0.0000    0.0000 C   0  0  0  0  0  0  0  0  0  0  0  0
    0.7500   -1.2990    0.0000 C   0  0  0  0  0  0  0  0  0  0  0  0
   -0.7500   -1.2990    0.0000 C   0  0  0  0  0  0  0  0  0  0  0  0
   -1.5000    0.0000    0.0000 C   0  0  0  0  0  0  0  0  0  0  0  0
   -0.7500    1.2990    0.0000 C   0  0  0  0  0  0  0  0  0  0  0  0
    0.7500    1.2990    0.0000 C   0  0  0  0  0  0  0  0  0  0  0  0
  1  2  1  0
  2  3  1  0
  3  4  1  0
  4  5  2  0
  5  6  1  0
  6  7  2  0
  7  8  1  0
  8  9  2  0
  9  4  1  0
M  END
>  <Title>  (141) 
idAAFKgen8

$$$$

     RDKit          2D

 29 33  0  0  0  0  0  0  0  0999 V2000
    3.0000    0.0000    0.0000 C   0  0  0  0  0  0  0  0  0  0  0  0
    1.5000    0.0000    0.0000 C   0  0  0  0  0  0  0  0  0  0  0  0
    0.7500   -1.2990    0.0000 C   0  0  0  0  0  0  0  0  0  0  0  0
   -0.7500   -1.2990    0.0000 C   0  0  0  0  0  0  0  0  0  0  0  0
   -1.5000    0.0000    0.0000 C   0  0  0  0  0  0  0  0  0  0  0  0
   -3.0000    0.0000    0.0000 C   0  0  0  0  0  0  0  0  0  0  0  0
   -3.8817   -1.2135    0.0000 N   0  0  0  0  0  0  0  0  0  0  0  0
   -5.3083   -0.7500    0.0000 N   0  0  0  0  0  0  0  0  0  0  0  0
   -5.3083    0.7500    0.0000 N   0  0  0  0  0  0  0  0  0  0  0  0
   -3.8817    1.2135    0.0000 N   0  0  0  0  0  0  0  0  0  0  0  0
   -3.4182    2.6401    0.0000 C   0  0  0  0  0  0  0  0  0  0  0  0
   -1.9509    2.9520    0.0000 C   0  0  0  0  0  0  0  0  0  0  0  0
   -1.4874    4.3786    0.0000 C   0  0  0  0  0  0  0  0  0  0  0  0
   -2.4911    5.4933    0.0000 C   0  0  0  0  0  0  0  0  0  0  0  0
   -2.0276    6.9199    0.0000 C   0  0  0  0  0  0  0  0  0  0  0  0
   -2.9093    8.1334    0.0000 N   0  0  0  0  0  0  0  0  0  0  0  0
   -2.0276    9.3469    0.0000 N   0  0  0  0  0  0  0  0  0  0  0  0
   -0.6010    8.8834    0.0000 N   0  0  0  0  0  0  0  0  0  0  0  0
   -0.6010    7.3834    0.0000 N   0  0  0  0  0  0  0  0  0  0  0  0
    0.6125    6.5017    0.0000 C   0  0  0  0  0  0  0  0  0  0  0  0
    0.4557    5.0099    0.0000 C   0  0  0  0  0  0  0  0  0  0  0  0
    1.6693    4.1283    0.0000 C   0  0  0  0  0  0  0  0  0  0  0  0
    3.0396    4.7384    0.0000 C   0  0  0  0  0  0  0  0  0  0  0  0
    3.1964    6.2301    0.0000 C   0  0  0  0  0  0  0  0  0  0  0  0
    1.9829    7.1118    0.0000 C   0  0  0  0  0  0  0  0  0  0  0  0
   -3.9583    5.1814    0.0000 C   0  0  0  0  0  0  0  0  0  0  0  0
   -4.4218    3.7548    0.0000 C   0  0  0  0  0  0  0  0  0  0  0  0
   -0.7500    1.2990    0.0000 C   0  0  0  0  0  0  0  0  0  0  0  0
    0.7500    1.2990    0.0000 C   0  0  0  0  0  0  0  0  0  0  0  0
  1  2  1  0
  2  3  2  0
  3  4  1  0
  4  5  2  0
  5  6  1  0
  6  7  2  0
  7  8  1  0
  8  9  2  0
  9 10  1  0
 10 11  1  0
 11 12  2  0
 12 13  1  0
 13 14  2  0
 14 15  1  0
 15 16  2  0
 16 17  1  0
 17 18  2  0
 18 19  1  0
 19 20  1  0
 20 21  2  0
 21 22  1  0
 22 23  2  0
 23 24  1  0
 24 25  2  0
 14 26  1  0
 26 27  2  0
  5 28  1  0
 28 29  2  0
 29  2  1  0
 10  6  1  0
 27 11  1  0
 19 15  1  0
 25 20  1  0
M  END
>  <Title>  (142) 
idAAFLgen8

$$$$

     RDKit          2D

 41 45  0  0  0  0  0  0  0  0999 V2000
   -0.2828    8.1349    0.0000 C   0  0  0  0  0  0  0  0  0  0  0  0
    1.0876    7.5248    0.0000 C   0  0  0  0  0  0  0  0  0  0  0  0
    2.3011    8.4065    0.0000 O   0  0  0  0  0  0  0  0  0  0  0  0
    1.2443    6.0330    0.0000 O   0  0  0  0  0  0  0  0  0  0  0  0
    2.6147    5.4229    0.0000 C   0  0  0  0  0  0  0  0  0  0  0  0
    2.9265    3.9557    0.0000 C   0  0  0  0  0  0  0  0  0  0  0  0
    4.4183    3.7989    0.0000 C   0  0  0  0  0  0  0  0  0  0  0  0
    5.0284    5.1692    0.0000 C   0  0  0  0  0  0  0  0  0  0  0  0
    6.4956    5.4811    0.0000 C   0  0  0  0  0  0  0  0  0  0  0  0
    6.9592    6.9077    0.0000 O   0  0  0  0  0  0  0  0  0  0  0  0
    7.4993    4.3664    0.0000 N   0  0  0  0  0  0  0  0  0  0  0  0
    8.9666    4.6782    0.0000 C   0  0  0  0  0  0  0  0  0  0  0  0
    9.5767    6.0486    0.0000 N   0  0  0  0  0  0  0  0  0  0  0  0
   11.0684    5.8918    0.0000 N   0  0  0  0  0  0  0  0  0  0  0  0
   11.3803    4.4246    0.0000 N   0  0  0  0  0  0  0  0  0  0  0  0
   10.0813    3.6746    0.0000 N   0  0  0  0  0  0  0  0  0  0  0  0
    9.9245    2.1828    0.0000 C   0  0  0  0  0  0  0  0  0  0  0  0
   11.0392    1.1791    0.0000 C   0  0  0  0  0  0  0  0  0  0  0  0
   10.4291   -0.1912    0.0000 C   0  0  0  0  0  0  0  0  0  0  0  0
    8.9373   -0.0345    0.0000 C   0  0  0  0  0  0  0  0  0  0  0  0
    7.9336   -1.1492    0.0000 C   0  0  0  0  0  0  0  0  0  0  0  0
    8.3971   -2.5758    0.0000 O   0  0  0  0  0  0  0  0  0  0  0  0
    6.4664   -0.8373    0.0000 N   0  0  0  0  0  0  0  0  0  0  0  0
    5.4627   -1.9520    0.0000 C   0  0  0  0  0  0  0  0  0  0  0  0
    5.9262   -3.3786    0.0000 O   0  0  0  0  0  0  0  0  0  0  0  0
    3.9955   -1.6402    0.0000 N   0  0  0  0  0  0  0  0  0  0  0  0
    2.9918   -2.7549    0.0000 C   0  0  0  0  0  0  0  0  0  0  0  0
    3.3037   -4.2221    0.0000 N   0  0  0  0  0  0  0  0  0  0  0  0
    2.0046   -4.9721    0.0000 N   0  0  0  0  0  0  0  0  0  0  0  0
    0.8899   -3.9684    0.0000 N   0  0  0  0  0  0  0  0  0  0  0  0
    1.5000   -2.5981    0.0000 N   0  0  0  0  0  0  0  0  0  0  0  0
    0.7500   -1.2990    0.0000 C   0  0  0  0  0  0  0  0  0  0  0  0
    1.5000    0.0000    0.0000 C   0  0  0  0  0  0  0  0  0  0  0  0
    0.7500    1.2990    0.0000 C   0  0  0  0  0  0  0  0  0  0  0  0
   -0.7500    1.2990    0.0000 C   0  0  0  0  0  0  0  0  0  0  0  0
   -1.5000    0.0000    0.0000 C   0  0  0  0  0  0  0  0  0  0  0  0
   -0.7500   -1.2990    0.0000 C   0  0  0  0  0  0  0  0  0  0  0  0
    8.6254    1.4328    0.0000 C   0  0  0  0  0  0  0  0  0  0  0  0
    7.2551    2.0429    0.0000 O   0  0  0  0  0  0  0  0  0  0  0  0
    3.9137    6.1729    0.0000 C   0  0  0  0  0  0  0  0  0  0  0  0
    4.0705    7.6647    0.0000 O   0  0  0  0  0  0  0  0  0  0  0  0
  1  2  1  0
  2  3  2  0
  2  4  1  0
  4  5  1  0
  5  6  2  0
  6  7  1  0
  7  8  2  0
  8  9  1  0
  9 10  2  0
  9 11  1  0
 11 12  1  0
 12 13  2  0
 13 14  1  0
 14 15  2  0
 15 16  1  0
 16 17  1  0
 17 18  2  0
 18 19  1  0
 19 20  2  0
 20 21  1  0
 21 22  2  0
 21 23  1  0
 23 24  1  0
 24 25  2  0
 24 26  1  0
 26 27  1  0
 27 28  2  0
 28 29  1  0
 29 30  2  0
 30 31  1  0
 31 32  1  0
 32 33  2  0
 33 34  1  0
 34 35  2  0
 35 36  1  0
 36 37  2  0
 20 38  1  0
 38 39  2  0
  8 40  1  0
 40 41  2  0
 40  5  1  0
 16 12  1  0
 38 17  1  0
 31 27  1  0
 37 32  1  0
M  END
>  <Title>  (143) 
idAAFMgen8

$$$$

     RDKit          2D

 48 54  0  0  0  0  0  0  0  0999 V2000
    3.0000    0.0000    0.0000 C   0  0  0  0  0  0  0  0  0  0  0  0
    1.5000    0.0000    0.0000 C   0  0  0  0  0  0  0  0  0  0  0  0
    0.7500   -1.2990    0.0000 C   0  0  0  0  0  0  0  0  0  0  0  0
   -0.7500   -1.2990    0.0000 C   0  0  0  0  0  0  0  0  0  0  0  0
   -1.5000    0.0000    0.0000 C   0  0  0  0  0  0  0  0  0  0  0  0
   -3.0000    0.0000    0.0000 C   0  0  0  0  0  0  0  0  0  0  0  0
   -3.7500   -1.2990    0.0000 O   0  0  0  0  0  0  0  0  0  0  0  0
   -3.7500    1.2990    0.0000 O   0  0  0  0  0  0  0  0  0  0  0  0
   -5.2500    1.2990    0.0000 C   0  0  0  0  0  0  0  0  0  0  0  0
   -6.1317    0.0855    0.0000 N   0  0  0  0  0  0  0  0  0  0  0  0
   -7.5583    0.5490    0.0000 N   0  0  0  0  0  0  0  0  0  0  0  0
   -7.5583    2.0490    0.0000 N   0  0  0  0  0  0  0  0  0  0  0  0
   -6.1317    2.5126    0.0000 N   0  0  0  0  0  0  0  0  0  0  0  0
   -5.6682    3.9391    0.0000 C   0  0  0  0  0  0  0  0  0  0  0  0
   -4.2009    4.2510    0.0000 C   0  0  0  0  0  0  0  0  0  0  0  0
   -3.7374    5.6776    0.0000 C   0  0  0  0  0  0  0  0  0  0  0  0
   -4.7411    6.7923    0.0000 C   0  0  0  0  0  0  0  0  0  0  0  0
   -4.2776    8.2189    0.0000 C   0  0  0  0  0  0  0  0  0  0  0  0
   -5.1593    9.4324    0.0000 N   0  0  0  0  0  0  0  0  0  0  0  0
   -4.2776   10.6460    0.0000 N   0  0  0  0  0  0  0  0  0  0  0  0
   -2.8510   10.1824    0.0000 N   0  0  0  0  0  0  0  0  0  0  0  0
   -2.8510    8.6824    0.0000 N   0  0  0  0  0  0  0  0  0  0  0  0
   -1.6375    7.8008    0.0000 C   0  0  0  0  0  0  0  0  0  0  0  0
   -1.7943    6.3090    0.0000 C   0  0  0  0  0  0  0  0  0  0  0  0
   -0.5807    5.4273    0.0000 C   0  0  0  0  0  0  0  0  0  0  0  0
    0.7896    6.0374    0.0000 C   0  0  0  0  0  0  0  0  0  0  0  0
    0.9464    7.5292    0.0000 N   0  0  0  0  0  0  0  0  0  0  0  0
   -0.2671    8.4109    0.0000 C   0  0  0  0  0  0  0  0  0  0  0  0
   -0.1104    9.9026    0.0000 C   0  0  0  0  0  0  0  0  0  0  0  0
    1.2600   10.5127    0.0000 C   0  0  0  0  0  0  0  0  0  0  0  0
    1.4168   12.0045    0.0000 C   0  0  0  0  0  0  0  0  0  0  0  0
    0.2032   12.8862    0.0000 C   0  0  0  0  0  0  0  0  0  0  0  0
   -1.1671   12.2761    0.0000 C   0  0  0  0  0  0  0  0  0  0  0  0
   -1.3239   10.7843    0.0000 C   0  0  0  0  0  0  0  0  0  0  0  0
   -6.2083    6.4805    0.0000 C   0  0  0  0  0  0  0  0  0  0  0  0
   -6.6718    5.0539    0.0000 C   0  0  0  0  0  0  0  0  0  0  0  0
   -8.1391    4.7420    0.0000 C   0  0  0  0  0  0  0  0  0  0  0  0
   -9.1428    5.8567    0.0000 C   0  0  0  0  0  0  0  0  0  0  0  0
  -10.6100    5.5448    0.0000 C   0  0  0  0  0  0  0  0  0  0  0  0
  -11.0735    4.1183    0.0000 C   0  0  0  0  0  0  0  0  0  0  0  0
  -12.5407    3.8064    0.0000 C   0  0  0  0  0  0  0  0  0  0  0  0
  -13.0043    2.3798    0.0000 O   0  0  0  0  0  0  0  0  0  0  0  0
  -13.5444    4.9211    0.0000 N   0  0  0  0  0  0  0  0  0  0  0  0
  -15.0117    4.6092    0.0000 O   0  0  0  0  0  0  0  0  0  0  0  0
  -10.0698    3.0035    0.0000 C   0  0  0  0  0  0  0  0  0  0  0  0
   -8.6026    3.3154    0.0000 C   0  0  0  0  0  0  0  0  0  0  0  0
   -0.7500    1.2990    0.0000 N   0  0  0  0  0  0  0  0  0  0  0  0
    0.7500    1.2990    0.0000 N   0  0  0  0  0  0  0  0  0  0  0  0
  1  2  1  0
  2  3  2  0
  3  4  1  0
  4  5  2  0
  5  6  1  0
  6  7  2  0
  6  8  1  0
  8  9  1  0
  9 10  2  0
 10 11  1  0
 11 12  2  0
 12 13  1  0
 13 14  1  0
 14 15  2  0
 15 16  1  0
 16 17  2  0
 17 18  1  0
 18 19  2  0
 19 20  1  0
 20 21  2  0
 21 22  1  0
 22 23  1  0
 23 24  2  0
 24 25  1  0
 25 26  2  0
 26 27  1  0
 27 28  2  0
 28 29  1  0
 29 30  2  0
 30 31  1  0
 31 32  2  0
 32 33  1  0
 33 34  2  0
 17 35  1  0
 35 36  2  0
 36 37  1  0
 37 38  2  0
 38 39  1  0
 39 40  2  0
 40 41  1  0
 41 42  2  0
 41 43  1  0
 43 44  1  0
 40 45  1  0
 45 46  1  0
  5 47  1  0
 47 48  2  0
 48  2  1  0
 13  9  1  0
 36 14  1  0
 46 37  1  0
 22 18  1  0
 28 23  1  0
 34 29  1  0
M  END
>  <Title>  (144) 
idAAFNgen8

$$$$

     RDKit          2D

 23 24  0  0  0  0  0  0  0  0999 V2000
    6.1334    2.7461    0.0000 C   0  0  0  0  0  0  0  0  0  0  0  0
    4.8182    3.4673    0.0000 C   0  0  0  0  0  0  0  0  0  0  0  0
    3.8676    2.3070    0.0000 C   0  0  0  0  0  0  0  0  0  0  0  0
    2.5620    1.5685    0.0000 C   0  0  0  0  0  0  0  0  0  0  0  0
    1.0777    1.3515    0.0000 C   0  0  0  0  0  0  0  0  0  0  0  0
    1.7286    0.0000    0.0000 C   0  0  0  0  0  0  0  0  0  0  0  0
    1.0777   -1.3515    0.0000 C   0  0  0  0  0  0  0  0  0  0  0  0
   -0.3846   -1.6852    0.0000 C   0  0  0  0  0  0  0  0  0  0  0  0
   -1.5574   -0.7500    0.0000 C   0  0  0  0  0  0  0  0  0  0  0  0
   -1.5574    0.7500    0.0000 C   0  0  0  0  0  0  0  0  0  0  0  0
   -0.3846    1.6852    0.0000 C   0  0  0  0  0  0  0  0  0  0  0  0
   -1.6277    2.5248    0.0000 N   0  0  0  0  0  0  0  0  0  0  0  0
   -2.4836    3.7566    0.0000 C   0  0  0  0  0  0  0  0  0  0  0  0
   -2.8366    5.2145    0.0000 C   0  0  0  0  0  0  0  0  0  0  0  0
   -2.6392    6.7014    0.0000 C   0  0  0  0  0  0  0  0  0  0  0  0
   -1.9179    8.0167    0.0000 C   0  0  0  0  0  0  0  0  0  0  0  0
   -0.7703    8.9825    0.0000 C   0  0  0  0  0  0  0  0  0  0  0  0
    0.6488    9.4686    0.0000 C   0  0  0  0  0  0  0  0  0  0  0  0
    2.1476    9.4092    0.0000 C   0  0  0  0  0  0  0  0  0  0  0  0
    3.5237    8.8124    0.0000 C   0  0  0  0  0  0  0  0  0  0  0  0
    4.5914    7.7588    0.0000 C   0  0  0  0  0  0  0  0  0  0  0  0
    5.2063    6.3906    0.0000 C   0  0  0  0  0  0  0  0  0  0  0  0
    5.2855    4.8927    0.0000 C   0  0  0  0  0  0  0  0  0  0  0  0
  1  2  1  0
  2  3  2  0
  3  4  1  0
  4  5  2  0
  5  6  1  0
  6  7  2  0
  7  8  1  0
  8  9  2  0
  9 10  1  0
 10 11  2  0
 11 12  1  0
 12 13  1  0
 13 14  1  0
 14 15  2  0
 15 16  1  0
 16 17  2  0
 17 18  1  0
 18 19  2  0
 19 20  1  0
 20 21  2  0
 21 22  1  0
 22 23  2  0
 23  2  1  0
 11  5  1  0
M  END
>  <Title>  (145) 
idAAFOgen8

$$$$

     RDKit          2D

 32 36  0  0  0  0  0  0  0  0999 V2000
    3.0000    0.0000    0.0000 C   0  0  0  0  0  0  0  0  0  0  0  0
    1.5000    0.0000    0.0000 C   0  0  0  0  0  0  0  0  0  0  0  0
    0.7500   -1.2990    0.0000 C   0  0  0  0  0  0  0  0  0  0  0  0
   -0.7500   -1.2990    0.0000 C   0  0  0  0  0  0  0  0  0  0  0  0
   -1.5000    0.0000    0.0000 C   0  0  0  0  0  0  0  0  0  0  0  0
   -3.0000    0.0000    0.0000 C   0  0  0  0  0  0  0  0  0  0  0  0
   -3.7500   -1.2990    0.0000 O   0  0  0  0  0  0  0  0  0  0  0  0
   -3.7500    1.2990    0.0000 N   0  0  0  0  0  0  0  0  0  0  0  0
   -5.2500    1.2990    0.0000 C   0  0  0  0  0  0  0  0  0  0  0  0
   -6.1317    0.0855    0.0000 N   0  0  0  0  0  0  0  0  0  0  0  0
   -7.5583    0.5490    0.0000 N   0  0  0  0  0  0  0  0  0  0  0  0
   -7.5583    2.0490    0.0000 N   0  0  0  0  0  0  0  0  0  0  0  0
   -6.1317    2.5126    0.0000 N   0  0  0  0  0  0  0  0  0  0  0  0
   -5.6682    3.9391    0.0000 C   0  0  0  0  0  0  0  0  0  0  0  0
   -4.2009    4.2510    0.0000 C   0  0  0  0  0  0  0  0  0  0  0  0
   -3.7374    5.6776    0.0000 C   0  0  0  0  0  0  0  0  0  0  0  0
   -4.7411    6.7923    0.0000 C   0  0  0  0  0  0  0  0  0  0  0  0
   -4.2776    8.2189    0.0000 C   0  0  0  0  0  0  0  0  0  0  0  0
   -5.1593    9.4324    0.0000 N   0  0  0  0  0  0  0  0  0  0  0  0
   -4.2776   10.6460    0.0000 N   0  0  0  0  0  0  0  0  0  0  0  0
   -2.8510   10.1824    0.0000 N   0  0  0  0  0  0  0  0  0  0  0  0
   -2.8510    8.6824    0.0000 N   0  0  0  0  0  0  0  0  0  0  0  0
   -1.6375    7.8008    0.0000 C   0  0  0  0  0  0  0  0  0  0  0  0
   -1.7943    6.3090    0.0000 C   0  0  0  0  0  0  0  0  0  0  0  0
   -0.5807    5.4273    0.0000 C   0  0  0  0  0  0  0  0  0  0  0  0
    0.7896    6.0374    0.0000 C   0  0  0  0  0  0  0  0  0  0  0  0
    0.9464    7.5292    0.0000 C   0  0  0  0  0  0  0  0  0  0  0  0
   -0.2671    8.4109    0.0000 C   0  0  0  0  0  0  0  0  0  0  0  0
   -6.2083    6.4805    0.0000 C   0  0  0  0  0  0  0  0  0  0  0  0
   -6.6718    5.0539    0.0000 C   0  0  0  0  0  0  0  0  0  0  0  0
   -0.7500    1.2990    0.0000 C   0  0  0  0  0  0  0  0  0  0  0  0
    0.7500    1.2990    0.0000 C   0  0  0  0  0  0  0  0  0  0  0  0
  1  2  1  0
  2  3  2  0
  3  4  1  0
  4  5  2  0
  5  6  1  0
  6  7  2  0
  6  8  1  0
  8  9  1  0
  9 10  2  0
 10 11  1  0
 11 12  2  0
 12 13  1  0
 13 14  1  0
 14 15  2  0
 15 16  1  0
 16 17  2  0
 17 18  1  0
 18 19  2  0
 19 20  1  0
 20 21  2  0
 21 22  1  0
 22 23  1  0
 23 24  2  0
 24 25  1  0
 25 26  2  0
 26 27  1  0
 27 28  2  0
 17 29  1  0
 29 30  2  0
  5 31  1  0
 31 32  2  0
 32  2  1  0
 13  9  1  0
 30 14  1  0
 22 18  1  0
 28 23  1  0
M  END
>  <Title>  (146) 
idAAFPgen8

$$$$

     RDKit          2D

 24 24  0  0  0  0  0  0  0  0999 V2000
    7.0443   -1.2990    0.0000 C   0  0  0  0  0  0  0  0  0  0  0  0
    6.2943    0.0000    0.0000 O   0  0  0  0  0  0  0  0  0  0  0  0
    4.7943    0.0000    0.0000 C   0  0  0  0  0  0  0  0  0  0  0  0
    4.5597   -1.4815    0.0000 C   0  0  0  0  0  0  0  0  0  0  0  0
    3.8787   -2.8180    0.0000 C   0  0  0  0  0  0  0  0  0  0  0  0
    2.8180   -3.8787    0.0000 C   0  0  0  0  0  0  0  0  0  0  0  0
    1.4815   -4.5597    0.0000 C   0  0  0  0  0  0  0  0  0  0  0  0
   -0.0000   -4.7943    0.0000 C   0  0  0  0  0  0  0  0  0  0  0  0
   -0.0000   -6.2943    0.0000 C   0  0  0  0  0  0  0  0  0  0  0  0
   -1.4815   -4.5597    0.0000 C   0  0  0  0  0  0  0  0  0  0  0  0
   -2.8180   -3.8787    0.0000 C   0  0  0  0  0  0  0  0  0  0  0  0
   -3.8787   -2.8180    0.0000 C   0  0  0  0  0  0  0  0  0  0  0  0
   -4.5597   -1.4815    0.0000 C   0  0  0  0  0  0  0  0  0  0  0  0
   -4.7943    0.0000    0.0000 C   0  0  0  0  0  0  0  0  0  0  0  0
   -4.5597    1.4815    0.0000 C   0  0  0  0  0  0  0  0  0  0  0  0
   -3.8787    2.8180    0.0000 C   0  0  0  0  0  0  0  0  0  0  0  0
   -2.8180    3.8787    0.0000 C   0  0  0  0  0  0  0  0  0  0  0  0
   -1.4815    4.5597    0.0000 C   0  0  0  0  0  0  0  0  0  0  0  0
    0.0000    4.7943    0.0000 C   0  0  0  0  0  0  0  0  0  0  0  0
    1.4815    4.5597    0.0000 C   0  0  0  0  0  0  0  0  0  0  0  0
    2.8180    3.8787    0.0000 C   0  0  0  0  0  0  0  0  0  0  0  0
    3.8787    2.8180    0.0000 C   0  0  0  0  0  0  0  0  0  0  0  0
    5.0922    3.6997    0.0000 O   0  0  0  0  0  0  0  0  0  0  0  0
    4.5597    1.4815    0.0000 N   0  0  0  0  0  0  0  0  0  0  0  0
  1  2  1  0
  2  3  1  0
  3  4  2  0
  4  5  1  0
  5  6  2  0
  6  7  1  0
  7  8  2  0
  8  9  1  0
  8 10  1  0
 10 11  2  0
 11 12  1  0
 12 13  2  0
 13 14  1  0
 14 15  2  0
 15 16  1  0
 16 17  2  0
 17 18  1  0
 18 19  2  0
 19 20  1  0
 20 21  2  0
 21 22  1  0
 22 23  2  0
 22 24  1  0
 24  3  1  0
M  END
>  <Title>  (147) 
idAAFQgen8

$$$$

     RDKit          2D

 22 23  0  0  0  0  0  0  0  0999 V2000
    5.1076   -1.4489    0.0000 O   0  0  0  0  0  0  0  0  0  0  0  0
    3.8086   -2.1989    0.0000 C   0  0  0  0  0  0  0  0  0  0  0  0
    3.8086   -3.6989    0.0000 N   0  0  0  0  0  0  0  0  0  0  0  0
    5.1076   -4.4489    0.0000 C   0  0  0  0  0  0  0  0  0  0  0  0
    5.1076   -5.9489    0.0000 C   0  0  0  0  0  0  0  0  0  0  0  0
    3.8086   -6.6989    0.0000 C   0  0  0  0  0  0  0  0  0  0  0  0
    3.8086   -8.1989    0.0000 C   0  0  0  0  0  0  0  0  0  0  0  0
    5.1076   -8.9489    0.0000 C   0  0  0  0  0  0  0  0  0  0  0  0
    6.4067   -8.1989    0.0000 C   0  0  0  0  0  0  0  0  0  0  0  0
    6.4067   -6.6989    0.0000 C   0  0  0  0  0  0  0  0  0  0  0  0
    2.5095   -1.4489    0.0000 C   0  0  0  0  0  0  0  0  0  0  0  0
    2.8978    0.0000    0.0000 C   0  0  0  0  0  0  0  0  0  0  0  0
    2.5095    1.4489    0.0000 C   0  0  0  0  0  0  0  0  0  0  0  0
    1.4489    2.5095    0.0000 C   0  0  0  0  0  0  0  0  0  0  0  0
    0.0000    2.8978    0.0000 C   0  0  0  0  0  0  0  0  0  0  0  0
   -1.4489    2.5095    0.0000 C   0  0  0  0  0  0  0  0  0  0  0  0
   -2.5095    1.4489    0.0000 C   0  0  0  0  0  0  0  0  0  0  0  0
   -2.8978    0.0000    0.0000 C   0  0  0  0  0  0  0  0  0  0  0  0
   -2.5095   -1.4489    0.0000 C   0  0  0  0  0  0  0  0  0  0  0  0
   -1.4489   -2.5095    0.0000 C   0  0  0  0  0  0  0  0  0  0  0  0
   -0.0000   -2.8978    0.0000 C   0  0  0  0  0  0  0  0  0  0  0  0
    1.4489   -2.5095    0.0000 C   0  0  0  0  0  0  0  0  0  0  0  0
  1  2  2  0
  2  3  1  0
  3  4  1  0
  4  5  1  0
  5  6  2  0
  6  7  1  0
  7  8  2  0
  8  9  1  0
  9 10  2  0
  2 11  1  0
 11 12  2  0
 12 13  1  0
 13 14  2  0
 14 15  1  0
 15 16  2  0
 16 17  1  0
 17 18  2  0
 18 19  1  0
 19 20  2  0
 20 21  1  0
 21 22  2  0
 10  5  1  0
 22 11  1  0
M  END
>  <Title>  (148) 
idAAFRgen8

$$$$

     RDKit          2D

 42 47  0  0  0  0  0  0  0  0999 V2000
    3.0000    0.0000    0.0000 C   0  0  0  0  0  0  0  0  0  0  0  0
    1.5000    0.0000    0.0000 C   0  0  0  0  0  0  0  0  0  0  0  0
    0.7500    1.2990    0.0000 C   0  0  0  0  0  0  0  0  0  0  0  0
   -0.7500    1.2990    0.0000 C   0  0  0  0  0  0  0  0  0  0  0  0
   -1.5000    0.0000    0.0000 C   0  0  0  0  0  0  0  0  0  0  0  0
   -3.0000    0.0000    0.0000 C   0  0  0  0  0  0  0  0  0  0  0  0
   -3.7500   -1.2990    0.0000 O   0  0  0  0  0  0  0  0  0  0  0  0
   -3.7500    1.2990    0.0000 N   0  0  0  0  0  0  0  0  0  0  0  0
   -5.2500    1.2990    0.0000 C   0  0  0  0  0  0  0  0  0  0  0  0
   -6.1317    0.0855    0.0000 N   0  0  0  0  0  0  0  0  0  0  0  0
   -7.5583    0.5490    0.0000 N   0  0  0  0  0  0  0  0  0  0  0  0
   -7.5583    2.0490    0.0000 N   0  0  0  0  0  0  0  0  0  0  0  0
   -6.1317    2.5126    0.0000 N   0  0  0  0  0  0  0  0  0  0  0  0
   -5.6682    3.9391    0.0000 C   0  0  0  0  0  0  0  0  0  0  0  0
   -6.5498    5.1527    0.0000 C   0  0  0  0  0  0  0  0  0  0  0  0
   -5.6682    6.3662    0.0000 C   0  0  0  0  0  0  0  0  0  0  0  0
   -4.2416    5.9027    0.0000 C   0  0  0  0  0  0  0  0  0  0  0  0
   -3.0280    6.7844    0.0000 C   0  0  0  0  0  0  0  0  0  0  0  0
   -3.1848    8.2761    0.0000 O   0  0  0  0  0  0  0  0  0  0  0  0
   -1.6577    6.1742    0.0000 N   0  0  0  0  0  0  0  0  0  0  0  0
   -0.4442    7.0559    0.0000 C   0  0  0  0  0  0  0  0  0  0  0  0
   -0.4442    8.5559    0.0000 N   0  0  0  0  0  0  0  0  0  0  0  0
    0.9824    9.0195    0.0000 N   0  0  0  0  0  0  0  0  0  0  0  0
    1.8641    7.8059    0.0000 N   0  0  0  0  0  0  0  0  0  0  0  0
    0.9824    6.5924    0.0000 N   0  0  0  0  0  0  0  0  0  0  0  0
    1.4459    5.1658    0.0000 C   0  0  0  0  0  0  0  0  0  0  0  0
    0.4422    4.0511    0.0000 C   0  0  0  0  0  0  0  0  0  0  0  0
    0.9057    2.6245    0.0000 C   0  0  0  0  0  0  0  0  0  0  0  0
    2.3730    2.3126    0.0000 C   0  0  0  0  0  0  0  0  0  0  0  0
    3.3767    3.4274    0.0000 C   0  0  0  0  0  0  0  0  0  0  0  0
    2.9131    4.8539    0.0000 C   0  0  0  0  0  0  0  0  0  0  0  0
    3.9168    5.9687    0.0000 C   0  0  0  0  0  0  0  0  0  0  0  0
    5.3841    5.6568    0.0000 C   0  0  0  0  0  0  0  0  0  0  0  0
    6.3877    6.7715    0.0000 C   0  0  0  0  0  0  0  0  0  0  0  0
    5.9242    8.1981    0.0000 C   0  0  0  0  0  0  0  0  0  0  0  0
    4.4570    8.5100    0.0000 N   0  0  0  0  0  0  0  0  0  0  0  0
    3.4533    7.3952    0.0000 C   0  0  0  0  0  0  0  0  0  0  0  0
   -4.2416    4.4027    0.0000 C   0  0  0  0  0  0  0  0  0  0  0  0
   -3.0280    3.5210    0.0000 O   0  0  0  0  0  0  0  0  0  0  0  0
   -0.7500   -1.2990    0.0000 N   0  0  0  0  0  0  0  0  0  0  0  0
    0.7500   -1.2990    0.0000 C   0  0  0  0  0  0  0  0  0  0  0  0
    1.5000   -2.5981    0.0000 O   0  0  0  0  0  0  0  0  0  0  0  0
  1  2  1  0
  2  3  2  0
  3  4  1  0
  4  5  2  0
  5  6  1  0
  6  7  2  0
  6  8  1  0
  8  9  1  0
  9 10  2  0
 10 11  1  0
 11 12  2  0
 12 13  1  0
 13 14  1  0
 14 15  2  0
 15 16  1  0
 16 17  2  0
 17 18  1  0
 18 19  2  0
 18 20  1  0
 20 21  1  0
 21 22  2  0
 22 23  1  0
 23 24  2  0
 24 25  1  0
 25 26  1  0
 26 27  2  0
 27 28  1  0
 28 29  2  0
 29 30  1  0
 30 31  2  0
 31 32  1  0
 32 33  2  0
 33 34  1  0
 34 35  2  0
 35 36  1  0
 36 37  2  0
 17 38  1  0
 38 39  2  0
  5 40  1  0
 40 41  1  0
 41 42  2  0
 41  2  1  0
 13  9  1  0
 38 14  1  0
 25 21  1  0
 31 26  1  0
 37 32  1  0
M  END
>  <Title>  (149) 
idAAFSgen8

$$$$

     RDKit          2D

 29 30  0  0  0  0  0  0  0  0999 V2000
    5.3444    0.0000    0.0000 C   0  0  0  0  0  0  0  0  0  0  0  0
    3.8444    0.0000    0.0000 C   0  0  0  0  0  0  0  0  0  0  0  0
    3.5517   -1.4712    0.0000 C   0  0  0  0  0  0  0  0  0  0  0  0
    2.7184   -2.7184    0.0000 C   0  0  0  0  0  0  0  0  0  0  0  0
    1.4712   -3.5517    0.0000 C   0  0  0  0  0  0  0  0  0  0  0  0
   -0.0000   -3.8444    0.0000 C   0  0  0  0  0  0  0  0  0  0  0  0
   -1.4712   -3.5517    0.0000 C   0  0  0  0  0  0  0  0  0  0  0  0
   -2.7184   -2.7184    0.0000 C   0  0  0  0  0  0  0  0  0  0  0  0
   -3.5517   -1.4712    0.0000 C   0  0  0  0  0  0  0  0  0  0  0  0
   -3.8444    0.0000    0.0000 C   0  0  0  0  0  0  0  0  0  0  0  0
   -3.5517    1.4712    0.0000 C   0  0  0  0  0  0  0  0  0  0  0  0
   -2.7184    2.7184    0.0000 C   0  0  0  0  0  0  0  0  0  0  0  0
   -1.4712    3.5517    0.0000 C   0  0  0  0  0  0  0  0  0  0  0  0
    0.0000    3.8444    0.0000 C   0  0  0  0  0  0  0  0  0  0  0  0
    1.4712    3.5517    0.0000 C   0  0  0  0  0  0  0  0  0  0  0  0
    2.0452    4.9376    0.0000 N   0  0  0  0  0  0  0  0  0  0  0  0
    3.5324    5.1333    0.0000 C   0  0  0  0  0  0  0  0  0  0  0  0
    4.1064    6.5192    0.0000 C   0  0  0  0  0  0  0  0  0  0  0  0
    5.5936    6.7150    0.0000 C   0  0  0  0  0  0  0  0  0  0  0  0
    6.1676    8.1008    0.0000 C   0  0  0  0  0  0  0  0  0  0  0  0
    5.2544    9.2908    0.0000 C   0  0  0  0  0  0  0  0  0  0  0  0
    5.8285   10.6766    0.0000 C   0  0  0  0  0  0  0  0  0  0  0  0
    4.9153   11.8667    0.0000 O   0  0  0  0  0  0  0  0  0  0  0  0
    7.3156   10.8724    0.0000 N   0  0  0  0  0  0  0  0  0  0  0  0
    7.8897   12.2582    0.0000 O   0  0  0  0  0  0  0  0  0  0  0  0
    3.7673    9.0950    0.0000 C   0  0  0  0  0  0  0  0  0  0  0  0
    3.1933    7.7092    0.0000 C   0  0  0  0  0  0  0  0  0  0  0  0
    2.7184    2.7184    0.0000 C   0  0  0  0  0  0  0  0  0  0  0  0
    3.5517    1.4712    0.0000 C   0  0  0  0  0  0  0  0  0  0  0  0
  1  2  1  0
  2  3  2  0
  3  4  1  0
  4  5  2  0
  5  6  1  0
  6  7  2  0
  7  8  1  0
  8  9  2  0
  9 10  1  0
 10 11  2  0
 11 12  1  0
 12 13  2  0
 13 14  1  0
 14 15  2  0
 15 16  1  0
 16 17  1  0
 17 18  1  0
 18 19  2  0
 19 20  1  0
 20 21  2  0
 21 22  1  0
 22 23  2  0
 22 24  1  0
 24 25  1  0
 21 26  1  0
 26 27  1  0
 15 28  1  0
 28 29  2  0
 29  2  1  0
 27 18  1  0
M  END
>  <Title>  (150) 
idAAFTgen8

$$$$

     RDKit          2D

 16 17  0  0  0  0  0  0  0  0999 V2000
    3.6929    0.0000    0.0000 C   0  0  0  0  0  0  0  0  0  0  0  0
    2.1929    0.0000    0.0000 C   0  0  0  0  0  0  0  0  0  0  0  0
    1.6798    1.4095    0.0000 C   0  0  0  0  0  0  0  0  0  0  0  0
    0.3808    2.1595    0.0000 C   0  0  0  0  0  0  0  0  0  0  0  0
   -1.0964    1.8991    0.0000 C   0  0  0  0  0  0  0  0  0  0  0  0
   -2.0606    0.7500    0.0000 C   0  0  0  0  0  0  0  0  0  0  0  0
   -3.2334    1.6852    0.0000 C   0  0  0  0  0  0  0  0  0  0  0  0
   -4.6957    1.3515    0.0000 C   0  0  0  0  0  0  0  0  0  0  0  0
   -5.3466   -0.0000    0.0000 C   0  0  0  0  0  0  0  0  0  0  0  0
   -4.6957   -1.3515    0.0000 C   0  0  0  0  0  0  0  0  0  0  0  0
   -5.6310   -2.5242    0.0000 F   0  0  0  0  0  0  0  0  0  0  0  0
   -3.2334   -1.6852    0.0000 C   0  0  0  0  0  0  0  0  0  0  0  0
   -2.0606   -0.7500    0.0000 C   0  0  0  0  0  0  0  0  0  0  0  0
   -1.0964   -1.8991    0.0000 N   0  0  0  0  0  0  0  0  0  0  0  0
    0.3808   -2.1595    0.0000 N   0  0  0  0  0  0  0  0  0  0  0  0
    1.6798   -1.4095    0.0000 N   0  0  0  0  0  0  0  0  0  0  0  0
  1  2  1  0
  2  3  2  0
  3  4  1  0
  4  5  2  0
  5  6  2  0
  6  7  1  0
  7  8  2  0
  8  9  1  0
  9 10  2  0
 10 11  1  0
 10 12  1  0
 12 13  2  0
 13 14  1  0
 14 15  2  0
 15 16  1  0
 16  2  1  0
 13  6  1  0
M  END
>  <Title>  (151) 
idAAFUgen8

$$$$

     RDKit          2D

 29 29  0  0  0  0  0  0  0  0999 V2000
    8.1986    0.0000    0.0000 C   0  0  0  0  0  0  0  0  0  0  0  0
    6.6986    0.0000    0.0000 C   0  0  0  0  0  0  0  0  0  0  0  0
    6.5306   -1.4906    0.0000 C   0  0  0  0  0  0  0  0  0  0  0  0
    6.0352   -2.9064    0.0000 C   0  0  0  0  0  0  0  0  0  0  0  0
    5.2371   -4.1765    0.0000 C   0  0  0  0  0  0  0  0  0  0  0  0
    4.1765   -5.2371    0.0000 C   0  0  0  0  0  0  0  0  0  0  0  0
    2.9064   -6.0352    0.0000 C   0  0  0  0  0  0  0  0  0  0  0  0
    1.4906   -6.5306    0.0000 C   0  0  0  0  0  0  0  0  0  0  0  0
   -0.0000   -6.6986    0.0000 C   0  0  0  0  0  0  0  0  0  0  0  0
   -1.4906   -6.5306    0.0000 C   0  0  0  0  0  0  0  0  0  0  0  0
   -2.9064   -6.0352    0.0000 C   0  0  0  0  0  0  0  0  0  0  0  0
   -4.1765   -5.2371    0.0000 C   0  0  0  0  0  0  0  0  0  0  0  0
   -5.2371   -4.1765    0.0000 C   0  0  0  0  0  0  0  0  0  0  0  0
   -6.0352   -2.9064    0.0000 C   0  0  0  0  0  0  0  0  0  0  0  0
   -6.5306   -1.4906    0.0000 C   0  0  0  0  0  0  0  0  0  0  0  0
   -6.6986    0.0000    0.0000 C   0  0  0  0  0  0  0  0  0  0  0  0
   -6.5306    1.4906    0.0000 C   0  0  0  0  0  0  0  0  0  0  0  0
   -6.0352    2.9064    0.0000 C   0  0  0  0  0  0  0  0  0  0  0  0
   -5.2371    4.1765    0.0000 C   0  0  0  0  0  0  0  0  0  0  0  0
   -4.1765    5.2371    0.0000 C   0  0  0  0  0  0  0  0  0  0  0  0
   -2.9064    6.0352    0.0000 C   0  0  0  0  0  0  0  0  0  0  0  0
   -1.4906    6.5306    0.0000 C   0  0  0  0  0  0  0  0  0  0  0  0
    0.0000    6.6986    0.0000 C   0  0  0  0  0  0  0  0  0  0  0  0
    1.4906    6.5306    0.0000 C   0  0  0  0  0  0  0  0  0  0  0  0
    2.9064    6.0352    0.0000 C   0  0  0  0  0  0  0  0  0  0  0  0
    4.1765    5.2371    0.0000 C   0  0  0  0  0  0  0  0  0  0  0  0
    5.2371    4.1765    0.0000 C   0  0  0  0  0  0  0  0  0  0  0  0
    6.0352    2.9064    0.0000 C   0  0  0  0  0  0  0  0  0  0  0  0
    6.5306    1.4906    0.0000 C   0  0  0  0  0  0  0  0  0  0  0  0
  1  2  1  0
  2  3  2  0
  3  4  1  0
  4  5  2  0
  5  6  1  0
  6  7  1  0
  7  8  1  0
  8  9  2  0
  9 10  1  0
 10 11  2  0
 11 12  1  0
 12 13  2  0
 13 14  1  0
 14 15  2  0
 15 16  1  0
 16 17  2  0
 17 18  1  0
 18 19  2  0
 19 20  1  0
 20 21  2  0
 21 22  1  0
 22 23  2  0
 23 24  1  0
 24 25  2  0
 25 26  1  0
 26 27  2  0
 27 28  1  0
 28 29  2  0
 29  2  1  0
M  END
>  <Title>  (152) 
idAAFVgen8

$$$$

     RDKit          2D

 35 40  0  0  0  0  0  0  0  0999 V2000
    3.0000    0.0000    0.0000 C   0  0  0  0  0  0  0  0  0  0  0  0
    1.5000    0.0000    0.0000 C   0  0  0  0  0  0  0  0  0  0  0  0
    0.7500   -1.2990    0.0000 C   0  0  0  0  0  0  0  0  0  0  0  0
   -0.7500   -1.2990    0.0000 C   0  0  0  0  0  0  0  0  0  0  0  0
   -1.5000    0.0000    0.0000 C   0  0  0  0  0  0  0  0  0  0  0  0
   -3.0000    0.0000    0.0000 C   0  0  0  0  0  0  0  0  0  0  0  0
   -3.8817   -1.2135    0.0000 N   0  0  0  0  0  0  0  0  0  0  0  0
   -5.3083   -0.7500    0.0000 N   0  0  0  0  0  0  0  0  0  0  0  0
   -5.3083    0.7500    0.0000 N   0  0  0  0  0  0  0  0  0  0  0  0
   -3.8817    1.2135    0.0000 N   0  0  0  0  0  0  0  0  0  0  0  0
   -3.4182    2.6401    0.0000 C   0  0  0  0  0  0  0  0  0  0  0  0
   -1.9509    2.9520    0.0000 C   0  0  0  0  0  0  0  0  0  0  0  0
   -1.4874    4.3786    0.0000 C   0  0  0  0  0  0  0  0  0  0  0  0
   -2.4911    5.4933    0.0000 C   0  0  0  0  0  0  0  0  0  0  0  0
   -2.0276    6.9199    0.0000 C   0  0  0  0  0  0  0  0  0  0  0  0
   -2.9093    8.1334    0.0000 N   0  0  0  0  0  0  0  0  0  0  0  0
   -2.0276    9.3469    0.0000 N   0  0  0  0  0  0  0  0  0  0  0  0
   -0.6010    8.8834    0.0000 N   0  0  0  0  0  0  0  0  0  0  0  0
   -0.6010    7.3834    0.0000 N   0  0  0  0  0  0  0  0  0  0  0  0
    0.6125    6.5017    0.0000 C   0  0  0  0  0  0  0  0  0  0  0  0
    0.4557    5.0099    0.0000 C   0  0  0  0  0  0  0  0  0  0  0  0
    1.6693    4.1283    0.0000 C   0  0  0  0  0  0  0  0  0  0  0  0
    3.0396    4.7384    0.0000 C   0  0  0  0  0  0  0  0  0  0  0  0
    3.1964    6.2301    0.0000 C   0  0  0  0  0  0  0  0  0  0  0  0
    1.9829    7.1118    0.0000 C   0  0  0  0  0  0  0  0  0  0  0  0
   -3.9583    5.1814    0.0000 C   0  0  0  0  0  0  0  0  0  0  0  0
   -4.4218    3.7548    0.0000 C   0  0  0  0  0  0  0  0  0  0  0  0
   -5.8891    3.4430    0.0000 C   0  0  0  0  0  0  0  0  0  0  0  0
   -6.8928    4.5577    0.0000 C   0  0  0  0  0  0  0  0  0  0  0  0
   -8.3600    4.2458    0.0000 C   0  0  0  0  0  0  0  0  0  0  0  0
   -8.8235    2.8192    0.0000 N   0  0  0  0  0  0  0  0  0  0  0  0
   -7.8198    1.7045    0.0000 C   0  0  0  0  0  0  0  0  0  0  0  0
   -6.3526    2.0164    0.0000 C   0  0  0  0  0  0  0  0  0  0  0  0
   -0.7500    1.2990    0.0000 C   0  0  0  0  0  0  0  0  0  0  0  0
    0.7500    1.2990    0.0000 C   0  0  0  0  0  0  0  0  0  0  0  0
  1  2  1  0
  2  3  2  0
  3  4  1  0
  4  5  2  0
  5  6  1  0
  6  7  2  0
  7  8  1  0
  8  9  2  0
  9 10  1  0
 10 11  1  0
 11 12  2  0
 12 13  1  0
 13 14  2  0
 14 15  1  0
 15 16  2  0
 16 17  1  0
 17 18  2  0
 18 19  1  0
 19 20  1  0
 20 21  2  0
 21 22  1  0
 22 23  2  0
 23 24  1  0
 24 25  2  0
 14 26  1  0
 26 27  2  0
 27 28  1  0
 28 29  2  0
 29 30  1  0
 30 31  2  0
 31 32  1  0
 32 33  2  0
  5 34  1  0
 34 35  2  0
 35  2  1  0
 10  6  1  0
 27 11  1  0
 33 28  1  0
 19 15  1  0
 25 20  1  0
M  END
>  <Title>  (153) 
idAAFWgen8

$$$$

     RDKit          2D

 19 20  0  0  0  0  0  0  0  0999 V2000
   -6.0751    6.4149    0.0000 C   0  0  0  0  0  0  0  0  0  0  0  0
   -4.7048    5.8048    0.0000 C   0  0  0  0  0  0  0  0  0  0  0  0
   -3.8231    7.0183    0.0000 C   0  0  0  0  0  0  0  0  0  0  0  0
   -2.5241    7.7683    0.0000 C   0  0  0  0  0  0  0  0  0  0  0  0
   -1.0323    7.9251    0.0000 C   0  0  0  0  0  0  0  0  0  0  0  0
    0.3943    7.4616    0.0000 C   0  0  0  0  0  0  0  0  0  0  0  0
    1.5090    6.4579    0.0000 C   0  0  0  0  0  0  0  0  0  0  0  0
    2.1191    5.0875    0.0000 C   0  0  0  0  0  0  0  0  0  0  0  0
    2.1191    3.5875    0.0000 C   0  0  0  0  0  0  0  0  0  0  0  0
    1.5090    2.2172    0.0000 C   0  0  0  0  0  0  0  0  0  0  0  0
    0.3943    1.2135    0.0000 C   0  0  0  0  0  0  0  0  0  0  0  0
    1.2760    0.0000    0.0000 C   0  0  0  0  0  0  0  0  0  0  0  0
    0.3943   -1.2135    0.0000 C   0  0  0  0  0  0  0  0  0  0  0  0
   -1.0323   -0.7500    0.0000 C   0  0  0  0  0  0  0  0  0  0  0  0
   -1.0323    0.7500    0.0000 C   0  0  0  0  0  0  0  0  0  0  0  0
   -2.5241    0.9068    0.0000 C   0  0  0  0  0  0  0  0  0  0  0  0
   -3.8231    1.6568    0.0000 C   0  0  0  0  0  0  0  0  0  0  0  0
   -4.7048    2.8703    0.0000 C   0  0  0  0  0  0  0  0  0  0  0  0
   -5.0167    4.3375    0.0000 C   0  0  0  0  0  0  0  0  0  0  0  0
  1  2  1  0
  2  3  2  0
  3  4  1  0
  4  5  2  0
  5  6  1  0
  6  7  2  0
  7  8  1  0
  8  9  2  0
  9 10  1  0
 10 11  2  0
 11 12  1  0
 12 13  2  0
 13 14  1  0
 14 15  2  0
 15 16  1  0
 16 17  1  0
 17 18  1  0
 18 19  2  0
 19  2  1  0
 15 11  1  0
M  END
>  <Title>  (154) 
idAAFXgen8

$$$$

     RDKit          2D

 55 62  0  0  0  0  0  0  0  0999 V2000
    3.0000    0.0000    0.0000 C   0  0  0  0  0  0  0  0  0  0  0  0
    1.5000    0.0000    0.0000 C   0  0  0  0  0  0  0  0  0  0  0  0
    0.7500   -1.2990    0.0000 C   0  0  0  0  0  0  0  0  0  0  0  0
   -0.7500   -1.2990    0.0000 C   0  0  0  0  0  0  0  0  0  0  0  0
   -1.5000    0.0000    0.0000 C   0  0  0  0  0  0  0  0  0  0  0  0
   -3.0000    0.0000    0.0000 C   0  0  0  0  0  0  0  0  0  0  0  0
   -3.7500   -1.2990    0.0000 O   0  0  0  0  0  0  0  0  0  0  0  0
   -3.7500    1.2990    0.0000 N   0  0  0  0  0  0  0  0  0  0  0  0
   -5.2500    1.2990    0.0000 C   0  0  0  0  0  0  0  0  0  0  0  0
   -6.1317    0.0855    0.0000 N   0  0  0  0  0  0  0  0  0  0  0  0
   -7.5583    0.5490    0.0000 N   0  0  0  0  0  0  0  0  0  0  0  0
   -7.5583    2.0490    0.0000 N   0  0  0  0  0  0  0  0  0  0  0  0
   -6.1317    2.5126    0.0000 N   0  0  0  0  0  0  0  0  0  0  0  0
   -5.6682    3.9391    0.0000 C   0  0  0  0  0  0  0  0  0  0  0  0
   -4.2009    4.2510    0.0000 C   0  0  0  0  0  0  0  0  0  0  0  0
   -3.7374    5.6776    0.0000 C   0  0  0  0  0  0  0  0  0  0  0  0
   -4.7411    6.7923    0.0000 C   0  0  0  0  0  0  0  0  0  0  0  0
   -4.2776    8.2189    0.0000 C   0  0  0  0  0  0  0  0  0  0  0  0
   -5.2813    9.3336    0.0000 O   0  0  0  0  0  0  0  0  0  0  0  0
   -2.8104    8.5308    0.0000 N   0  0  0  0  0  0  0  0  0  0  0  0
   -2.3468    9.9574    0.0000 C   0  0  0  0  0  0  0  0  0  0  0  0
   -3.3505   11.0721    0.0000 O   0  0  0  0  0  0  0  0  0  0  0  0
   -0.8796   10.2692    0.0000 C   0  0  0  0  0  0  0  0  0  0  0  0
   -0.2695   11.6395    0.0000 N   0  0  0  0  0  0  0  0  0  0  0  0
    1.2223   11.4827    0.0000 N   0  0  0  0  0  0  0  0  0  0  0  0
    1.5341   10.0155    0.0000 N   0  0  0  0  0  0  0  0  0  0  0  0
    0.2351    9.2655    0.0000 N   0  0  0  0  0  0  0  0  0  0  0  0
    0.0783    7.7737    0.0000 C   0  0  0  0  0  0  0  0  0  0  0  0
   -1.2920    7.1636    0.0000 C   0  0  0  0  0  0  0  0  0  0  0  0
   -1.4488    5.6719    0.0000 C   0  0  0  0  0  0  0  0  0  0  0  0
   -0.2353    4.7902    0.0000 C   0  0  0  0  0  0  0  0  0  0  0  0
    1.1350    5.4003    0.0000 C   0  0  0  0  0  0  0  0  0  0  0  0
    1.2918    6.8921    0.0000 C   0  0  0  0  0  0  0  0  0  0  0  0
   -6.2083    6.4805    0.0000 C   0  0  0  0  0  0  0  0  0  0  0  0
   -6.6718    5.0539    0.0000 C   0  0  0  0  0  0  0  0  0  0  0  0
   -8.1391    4.7420    0.0000 C   0  0  0  0  0  0  0  0  0  0  0  0
   -9.1428    5.8567    0.0000 C   0  0  0  0  0  0  0  0  0  0  0  0
  -10.6100    5.5448    0.0000 C   0  0  0  0  0  0  0  0  0  0  0  0
  -11.0735    4.1183    0.0000 C   0  0  0  0  0  0  0  0  0  0  0  0
  -12.5407    3.8064    0.0000 C   0  0  0  0  0  0  0  0  0  0  0  0
  -13.1508    2.4361    0.0000 N   0  0  0  0  0  0  0  0  0  0  0  0
  -14.6426    2.5929    0.0000 N   0  0  0  0  0  0  0  0  0  0  0  0
  -14.9545    4.0601    0.0000 N   0  0  0  0  0  0  0  0  0  0  0  0
  -13.6555    4.8101    0.0000 N   0  0  0  0  0  0  0  0  0  0  0  0
  -13.4987    6.3019    0.0000 C   0  0  0  0  0  0  0  0  0  0  0  0
  -12.1283    6.9120    0.0000 C   0  0  0  0  0  0  0  0  0  0  0  0
  -11.9715    8.4038    0.0000 C   0  0  0  0  0  0  0  0  0  0  0  0
  -13.1851    9.2854    0.0000 C   0  0  0  0  0  0  0  0  0  0  0  0
  -14.5554    8.6753    0.0000 C   0  0  0  0  0  0  0  0  0  0  0  0
  -14.7122    7.1836    0.0000 C   0  0  0  0  0  0  0  0  0  0  0  0
  -10.0698    3.0035    0.0000 C   0  0  0  0  0  0  0  0  0  0  0  0
   -8.6026    3.3154    0.0000 C   0  0  0  0  0  0  0  0  0  0  0  0
   -0.7500    1.2990    0.0000 C   0  0  0  0  0  0  0  0  0  0  0  0
    0.7500    1.2990    0.0000 C   0  0  0  0  0  0  0  0  0  0  0  0
    1.5000    2.5981    0.0000 C   0  0  0  0  0  0  0  0  0  0  0  0
  1  2  1  0
  2  3  2  0
  3  4  1  0
  4  5  2  0
  5  6  1  0
  6  7  2  0
  6  8  1  0
  8  9  1  0
  9 10  2  0
 10 11  1  0
 11 12  2  0
 12 13  1  0
 13 14  1  0
 14 15  2  0
 15 16  1  0
 16 17  2  0
 17 18  1  0
 18 19  2  0
 18 20  1  0
 20 21  1  0
 21 22  2  0
 21 23  1  0
 23 24  2  0
 24 25  1  0
 25 26  2  0
 26 27  1  0
 27 28  1  0
 28 29  2  0
 29 30  1  0
 30 31  2  0
 31 32  1  0
 32 33  2  0
 17 34  1  0
 34 35  2  0
 35 36  1  0
 36 37  2  0
 37 38  1  0
 38 39  2  0
 39 40  1  0
 40 41  2  0
 41 42  1  0
 42 43  2  0
 43 44  1  0
 44 45  1  0
 45 46  2  0
 46 47  1  0
 47 48  2  0
 48 49  1  0
 49 50  2  0
 39 51  1  0
 51 52  2  0
  5 53  1  0
 53 54  2  0
 54 55  1  0
 54  2  1  0
 13  9  1  0
 35 14  1  0
 52 36  1  0
 27 23  1  0
 33 28  1  0
 44 40  1  0
 50 45  1  0
M  END
>  <Title>  (155) 
idAAFYgen8

$$$$

     RDKit          2D

 42 47  0  0  0  0  0  0  0  0999 V2000
   -2.6615    2.7041    0.0000 C   0  0  0  0  0  0  0  0  0  0  0  0
   -1.1827    2.9553    0.0000 C   0  0  0  0  0  0  0  0  0  0  0  0
   -0.3846    1.6852    0.0000 C   0  0  0  0  0  0  0  0  0  0  0  0
    1.0777    1.3515    0.0000 C   0  0  0  0  0  0  0  0  0  0  0  0
    2.3478    2.1495    0.0000 C   0  0  0  0  0  0  0  0  0  0  0  0
    3.5712    1.2815    0.0000 C   0  0  0  0  0  0  0  0  0  0  0  0
    4.9925    1.7610    0.0000 N   0  0  0  0  0  0  0  0  0  0  0  0
    5.8877    0.5574    0.0000 N   0  0  0  0  0  0  0  0  0  0  0  0
    5.0197   -0.6659    0.0000 N   0  0  0  0  0  0  0  0  0  0  0  0
    3.5880   -0.2184    0.0000 N   0  0  0  0  0  0  0  0  0  0  0  0
    2.3844   -1.1136    0.0000 C   0  0  0  0  0  0  0  0  0  0  0  0
    1.0074   -0.5190    0.0000 C   0  0  0  0  0  0  0  0  0  0  0  0
   -0.1962   -1.4142    0.0000 C   0  0  0  0  0  0  0  0  0  0  0  0
   -0.0227   -2.9041    0.0000 C   0  0  0  0  0  0  0  0  0  0  0  0
    1.3544   -3.4988    0.0000 C   0  0  0  0  0  0  0  0  0  0  0  0
    2.5580   -2.6036    0.0000 C   0  0  0  0  0  0  0  0  0  0  0  0
    3.9350   -3.1983    0.0000 C   0  0  0  0  0  0  0  0  0  0  0  0
    5.2256   -2.4337    0.0000 N   0  0  0  0  0  0  0  0  0  0  0  0
    6.3515   -3.4249    0.0000 N   0  0  0  0  0  0  0  0  0  0  0  0
    5.7568   -4.8019    0.0000 N   0  0  0  0  0  0  0  0  0  0  0  0
    4.2634   -4.6619    0.0000 N   0  0  0  0  0  0  0  0  0  0  0  0
    3.2722   -5.7878    0.0000 C   0  0  0  0  0  0  0  0  0  0  0  0
    1.8016   -5.4924    0.0000 C   0  0  0  0  0  0  0  0  0  0  0  0
    0.8105   -6.6183    0.0000 C   0  0  0  0  0  0  0  0  0  0  0  0
    1.2900   -8.0396    0.0000 C   0  0  0  0  0  0  0  0  0  0  0  0
    0.2989   -9.1655    0.0000 C   0  0  0  0  0  0  0  0  0  0  0  0
    0.7784  -10.5868    0.0000 O   0  0  0  0  0  0  0  0  0  0  0  0
   -1.1718   -8.8701    0.0000 N   0  0  0  0  0  0  0  0  0  0  0  0
   -2.1629   -9.9961    0.0000 O   0  0  0  0  0  0  0  0  0  0  0  0
    2.7606   -8.3350    0.0000 N   0  0  0  0  0  0  0  0  0  0  0  0
    3.7517   -7.2091    0.0000 C   0  0  0  0  0  0  0  0  0  0  0  0
    5.2224   -7.5045    0.0000 O   0  0  0  0  0  0  0  0  0  0  0  0
    2.6816    3.6119    0.0000 N   0  0  0  0  0  0  0  0  0  0  0  0
    4.1722    3.4439    0.0000 N   0  0  0  0  0  0  0  0  0  0  0  0
    5.2328    4.5046    0.0000 C   0  0  0  0  0  0  0  0  0  0  0  0
    5.0649    5.9952    0.0000 C   0  0  0  0  0  0  0  0  0  0  0  0
    3.7948    6.7932    0.0000 C   0  0  0  0  0  0  0  0  0  0  0  0
    2.3790    6.2978    0.0000 C   0  0  0  0  0  0  0  0  0  0  0  0
    1.8836    4.8820    0.0000 C   0  0  0  0  0  0  0  0  0  0  0  0
    0.4212    5.2158    0.0000 O   0  0  0  0  0  0  0  0  0  0  0  0
   -0.8489    4.4177    0.0000 C   0  0  0  0  0  0  0  0  0  0  0  0
   -2.0723    5.2857    0.0000 O   0  0  0  0  0  0  0  0  0  0  0  0
  1  2  1  0
  2  3  2  0
  3  4  1  0
  4  5  2  0
  5  6  1  0
  6  7  2  0
  7  8  1  0
  8  9  2  0
  9 10  1  0
 10 11  1  0
 11 12  1  0
 12 13  1  0
 13 14  1  0
 14 15  1  0
 15 16  1  0
 16 17  1  0
 17 18  2  0
 18 19  1  0
 19 20  2  0
 20 21  1  0
 21 22  1  0
 22 23  2  0
 23 24  1  0
 24 25  2  0
 25 26  1  0
 26 27  2  0
 26 28  1  0
 28 29  1  0
 25 30  1  0
 30 31  1  0
 31 32  2  0
  5 33  1  0
 33 34  1  0
 34 35  2  0
 35 36  1  0
 36 37  2  0
 37 38  1  0
 38 39  2  0
 39 40  1  0
 40 41  1  0
 41 42  2  0
 41  2  1  0
 10  6  1  0
 16 11  1  0
 21 17  1  0
 31 22  1  0
 39 33  1  0
M  END
>  <Title>  (156) 
idAAFZgen8

$$$$

     RDKit          2D

 38 42  0  0  0  0  0  0  0  0999 V2000
    3.0000    0.0000    0.0000 C   0  0  0  0  0  0  0  0  0  0  0  0
    1.5000    0.0000    0.0000 C   0  0  0  0  0  0  0  0  0  0  0  0
    0.7500   -1.2990    0.0000 C   0  0  0  0  0  0  0  0  0  0  0  0
   -0.7500   -1.2990    0.0000 C   0  0  0  0  0  0  0  0  0  0  0  0
   -1.5000    0.0000    0.0000 C   0  0  0  0  0  0  0  0  0  0  0  0
   -3.0000    0.0000    0.0000 C   0  0  0  0  0  0  0  0  0  0  0  0
   -3.7500   -1.2990    0.0000 O   0  0  0  0  0  0  0  0  0  0  0  0
   -3.7500    1.2990    0.0000 N   0  0  0  0  0  0  0  0  0  0  0  0
   -5.2500    1.2990    0.0000 C   0  0  0  0  0  0  0  0  0  0  0  0
   -6.1317    0.0855    0.0000 N   0  0  0  0  0  0  0  0  0  0  0  0
   -7.5583    0.5490    0.0000 N   0  0  0  0  0  0  0  0  0  0  0  0
   -7.5583    2.0490    0.0000 N   0  0  0  0  0  0  0  0  0  0  0  0
   -6.1317    2.5126    0.0000 N   0  0  0  0  0  0  0  0  0  0  0  0
   -5.6682    3.9391    0.0000 C   0  0  0  0  0  0  0  0  0  0  0  0
   -6.5498    5.1527    0.0000 C   0  0  0  0  0  0  0  0  0  0  0  0
   -5.6682    6.3662    0.0000 C   0  0  0  0  0  0  0  0  0  0  0  0
   -4.2416    5.9027    0.0000 C   0  0  0  0  0  0  0  0  0  0  0  0
   -3.0280    6.7844    0.0000 C   0  0  0  0  0  0  0  0  0  0  0  0
   -1.6577    6.1742    0.0000 C   0  0  0  0  0  0  0  0  0  0  0  0
   -0.4442    7.0559    0.0000 C   0  0  0  0  0  0  0  0  0  0  0  0
   -0.6010    8.5477    0.0000 O   0  0  0  0  0  0  0  0  0  0  0  0
    0.9261    6.4458    0.0000 N   0  0  0  0  0  0  0  0  0  0  0  0
    2.1396    7.3275    0.0000 C   0  0  0  0  0  0  0  0  0  0  0  0
    2.1396    8.8275    0.0000 N   0  0  0  0  0  0  0  0  0  0  0  0
    3.5662    9.2910    0.0000 N   0  0  0  0  0  0  0  0  0  0  0  0
    4.4479    8.0775    0.0000 N   0  0  0  0  0  0  0  0  0  0  0  0
    3.5662    6.8640    0.0000 N   0  0  0  0  0  0  0  0  0  0  0  0
    4.0298    5.4374    0.0000 C   0  0  0  0  0  0  0  0  0  0  0  0
    3.0261    4.3227    0.0000 C   0  0  0  0  0  0  0  0  0  0  0  0
    3.4896    2.8961    0.0000 C   0  0  0  0  0  0  0  0  0  0  0  0
    4.9568    2.5842    0.0000 C   0  0  0  0  0  0  0  0  0  0  0  0
    5.9605    3.6989    0.0000 C   0  0  0  0  0  0  0  0  0  0  0  0
    5.4970    5.1255    0.0000 C   0  0  0  0  0  0  0  0  0  0  0  0
   -4.2416    4.4027    0.0000 C   0  0  0  0  0  0  0  0  0  0  0  0
   -3.0280    3.5210    0.0000 O   0  0  0  0  0  0  0  0  0  0  0  0
   -0.7500    1.2990    0.0000 C   0  0  0  0  0  0  0  0  0  0  0  0
    0.7500    1.2990    0.0000 C   0  0  0  0  0  0  0  0  0  0  0  0
    1.5000    2.5981    0.0000 C   0  0  0  0  0  0  0  0  0  0  0  0
  1  2  1  0
  2  3  2  0
  3  4  1  0
  4  5  2  0
  5  6  1  0
  6  7  2  0
  6  8  1  0
  8  9  1  0
  9 10  2  0
 10 11  1  0
 11 12  2  0
 12 13  1  0
 13 14  1  0
 14 15  2  0
 15 16  1  0
 16 17  2  0
 17 18  1  0
 18 19  1  0
 19 20  1  0
 20 21  2  0
 20 22  1  0
 22 23  1  0
 23 24  2  0
 24 25  1  0
 25 26  2  0
 26 27  1  0
 27 28  1  0
 28 29  2  0
 29 30  1  0
 30 31  2  0
 31 32  1  0
 32 33  2  0
 17 34  1  0
 34 35  2  0
  5 36  1  0
 36 37  2  0
 37 38  1  0
 37  2  1  0
 13  9  1  0
 34 14  1  0
 27 23  1  0
 33 28  1  0
M  END
>  <Title>  (157) 
idAAGAgen8

$$$$

     RDKit          2D

 24 24  0  0  0  0  0  0  0  0999 V2000
    7.5200   -1.2990    0.0000 C   0  0  0  0  0  0  0  0  0  0  0  0
    6.7700    0.0000    0.0000 O   0  0  0  0  0  0  0  0  0  0  0  0
    5.2700    0.0000    0.0000 C   0  0  0  0  0  0  0  0  0  0  0  0
    5.0565   -1.4847    0.0000 C   0  0  0  0  0  0  0  0  0  0  0  0
    4.4334   -2.8492    0.0000 C   0  0  0  0  0  0  0  0  0  0  0  0
    3.4511   -3.9828    0.0000 C   0  0  0  0  0  0  0  0  0  0  0  0
    2.1892   -4.7938    0.0000 C   0  0  0  0  0  0  0  0  0  0  0  0
    0.7500   -5.2164    0.0000 C   0  0  0  0  0  0  0  0  0  0  0  0
   -0.7500   -5.2164    0.0000 C   0  0  0  0  0  0  0  0  0  0  0  0
   -2.1892   -4.7938    0.0000 C   0  0  0  0  0  0  0  0  0  0  0  0
   -3.4511   -3.9828    0.0000 C   0  0  0  0  0  0  0  0  0  0  0  0
   -4.4334   -2.8492    0.0000 C   0  0  0  0  0  0  0  0  0  0  0  0
   -5.0565   -1.4847    0.0000 C   0  0  0  0  0  0  0  0  0  0  0  0
   -5.2700    0.0000    0.0000 C   0  0  0  0  0  0  0  0  0  0  0  0
   -5.0565    1.4847    0.0000 C   0  0  0  0  0  0  0  0  0  0  0  0
   -4.4334    2.8492    0.0000 C   0  0  0  0  0  0  0  0  0  0  0  0
   -3.4511    3.9828    0.0000 C   0  0  0  0  0  0  0  0  0  0  0  0
   -2.1892    4.7938    0.0000 C   0  0  0  0  0  0  0  0  0  0  0  0
   -0.7500    5.2164    0.0000 C   0  0  0  0  0  0  0  0  0  0  0  0
    0.7500    5.2164    0.0000 C   0  0  0  0  0  0  0  0  0  0  0  0
    2.1892    4.7938    0.0000 C   0  0  0  0  0  0  0  0  0  0  0  0
    3.4511    3.9828    0.0000 C   0  0  0  0  0  0  0  0  0  0  0  0
    4.4334    2.8492    0.0000 C   0  0  0  0  0  0  0  0  0  0  0  0
    5.0565    1.4847    0.0000 C   0  0  0  0  0  0  0  0  0  0  0  0
  1  2  1  0
  2  3  1  0
  3  4  1  0
  4  5  2  0
  5  6  1  0
  6  7  2  0
  7  8  1  0
  8  9  2  0
  9 10  1  0
 10 11  2  0
 11 12  1  0
 12 13  2  0
 13 14  1  0
 14 15  2  0
 15 16  1  0
 16 17  2  0
 17 18  1  0
 18 19  2  0
 19 20  1  0
 20 21  1  0
 21 22  1  0
 22 23  1  0
 23 24  1  0
 24  3  1  0
M  END
>  <Title>  (158) 
idAAGBgen8

$$$$

     RDKit          2D

 37 42  0  0  0  0  0  0  0  0999 V2000
   14.2407    6.5391    0.0000 C   0  0  0  0  0  0  0  0  0  0  0  0
   13.2967    5.3734    0.0000 C   0  0  0  0  0  0  0  0  0  0  0  0
   13.8343    3.9730    0.0000 C   0  0  0  0  0  0  0  0  0  0  0  0
   12.8903    2.8073    0.0000 C   0  0  0  0  0  0  0  0  0  0  0  0
   11.4088    3.0419    0.0000 C   0  0  0  0  0  0  0  0  0  0  0  0
   10.4648    1.8762    0.0000 C   0  0  0  0  0  0  0  0  0  0  0  0
   10.8530    0.4273    0.0000 N   0  0  0  0  0  0  0  0  0  0  0  0
    9.5950   -0.3896    0.0000 N   0  0  0  0  0  0  0  0  0  0  0  0
    8.4293    0.5543    0.0000 N   0  0  0  0  0  0  0  0  0  0  0  0
    8.9669    1.9547    0.0000 N   0  0  0  0  0  0  0  0  0  0  0  0
    8.1499    3.2127    0.0000 C   0  0  0  0  0  0  0  0  0  0  0  0
    8.8309    4.5492    0.0000 C   0  0  0  0  0  0  0  0  0  0  0  0
    8.0139    5.8072    0.0000 C   0  0  0  0  0  0  0  0  0  0  0  0
    6.5160    5.7287    0.0000 C   0  0  0  0  0  0  0  0  0  0  0  0
    5.8350    4.3922    0.0000 C   0  0  0  0  0  0  0  0  0  0  0  0
    6.6520    3.1342    0.0000 C   0  0  0  0  0  0  0  0  0  0  0  0
    5.9710    1.7977    0.0000 C   0  0  0  0  0  0  0  0  0  0  0  0
    4.4730    1.7192    0.0000 C   0  0  0  0  0  0  0  0  0  0  0  0
    3.7920    0.3827    0.0000 C   0  0  0  0  0  0  0  0  0  0  0  0
    4.6090   -0.8753    0.0000 C   0  0  0  0  0  0  0  0  0  0  0  0
    3.9280   -2.2118    0.0000 C   0  0  0  0  0  0  0  0  0  0  0  0
    4.6090   -3.5483    0.0000 N   0  0  0  0  0  0  0  0  0  0  0  0
    3.5483   -4.6090    0.0000 N   0  0  0  0  0  0  0  0  0  0  0  0
    2.2118   -3.9280    0.0000 N   0  0  0  0  0  0  0  0  0  0  0  0
    2.4465   -2.4465    0.0000 N   0  0  0  0  0  0  0  0  0  0  0  0
    1.3858   -1.3858    0.0000 C   0  0  0  0  0  0  0  0  0  0  0  0
    1.9598    0.0000    0.0000 C   0  0  0  0  0  0  0  0  0  0  0  0
    1.3858    1.3858    0.0000 C   0  0  0  0  0  0  0  0  0  0  0  0
    0.0000    1.9598    0.0000 N   0  0  0  0  0  0  0  0  0  0  0  0
   -1.3858    1.3858    0.0000 N   0  0  0  0  0  0  0  0  0  0  0  0
   -1.9598    0.0000    0.0000 N   0  0  0  0  0  0  0  0  0  0  0  0
   -1.3858   -1.3858    0.0000 N   0  0  0  0  0  0  0  0  0  0  0  0
   -0.0000   -1.9598    0.0000 N   0  0  0  0  0  0  0  0  0  0  0  0
    6.1069   -0.7968    0.0000 C   0  0  0  0  0  0  0  0  0  0  0  0
    6.7879    0.5397    0.0000 C   0  0  0  0  0  0  0  0  0  0  0  0
   10.8712    4.4423    0.0000 C   0  0  0  0  0  0  0  0  0  0  0  0
   11.8152    5.6080    0.0000 C   0  0  0  0  0  0  0  0  0  0  0  0
  1  2  1  0
  2  3  2  0
  3  4  1  0
  4  5  2  0
  5  6  1  0
  6  7  2  0
  7  8  1  0
  8  9  2  0
  9 10  1  0
 10 11  1  0
 11 12  1  0
 12 13  1  0
 13 14  1  0
 14 15  1  0
 15 16  1  0
 16 17  1  0
 17 18  2  0
 18 19  1  0
 19 20  2  0
 20 21  1  0
 21 22  2  0
 22 23  1  0
 23 24  2  0
 24 25  1  0
 25 26  1  0
 26 27  2  0
 27 28  1  0
 28 29  2  0
 29 30  1  0
 30 31  2  0
 31 32  1  0
 32 33  2  0
 20 34  1  0
 34 35  2  0
  5 36  1  0
 36 37  2  0
 37  2  1  0
 10  6  1  0
 16 11  1  0
 35 17  1  0
 25 21  1  0
 33 26  1  0
M  END
>  <Title>  (159) 
idAAGCgen8

$$$$

     RDKit          2D

 23 25  0  0  0  0  0  0  0  0999 V2000
    3.0000    0.0000    0.0000 C   0  0  0  0  0  0  0  0  0  0  0  0
    1.5000    0.0000    0.0000 C   0  0  0  0  0  0  0  0  0  0  0  0
    0.7500   -1.2990    0.0000 C   0  0  0  0  0  0  0  0  0  0  0  0
   -0.7500   -1.2990    0.0000 C   0  0  0  0  0  0  0  0  0  0  0  0
   -1.5000    0.0000    0.0000 C   0  0  0  0  0  0  0  0  0  0  0  0
   -3.0000    0.0000    0.0000 C   0  0  0  0  0  0  0  0  0  0  0  0
   -3.7500    1.2990    0.0000 C   0  0  0  0  0  0  0  0  0  0  0  0
   -5.2500    1.2990    0.0000 N   0  0  0  0  0  0  0  0  0  0  0  0
   -6.0000    0.0000    0.0000 N   0  0  0  0  0  0  0  0  0  0  0  0
   -5.2500   -1.2990    0.0000 N   0  0  0  0  0  0  0  0  0  0  0  0
   -3.7500   -1.2990    0.0000 N   0  0  0  0  0  0  0  0  0  0  0  0
   -3.0000   -2.5981    0.0000 C   0  0  0  0  0  0  0  0  0  0  0  0
   -3.7500   -3.8971    0.0000 C   0  0  0  0  0  0  0  0  0  0  0  0
   -3.0000   -5.1962    0.0000 C   0  0  0  0  0  0  0  0  0  0  0  0
   -1.5000   -5.1962    0.0000 C   0  0  0  0  0  0  0  0  0  0  0  0
   -0.7500   -6.4952    0.0000 C   0  0  0  0  0  0  0  0  0  0  0  0
    0.7500   -6.4952    0.0000 O   0  0  0  0  0  0  0  0  0  0  0  0
   -1.5000   -7.7942    0.0000 N   0  0  0  0  0  0  0  0  0  0  0  0
   -0.7500   -9.0933    0.0000 O   0  0  0  0  0  0  0  0  0  0  0  0
   -0.7500   -3.8971    0.0000 C   0  0  0  0  0  0  0  0  0  0  0  0
   -1.5000   -2.5981    0.0000 C   0  0  0  0  0  0  0  0  0  0  0  0
   -0.7500    1.2990    0.0000 C   0  0  0  0  0  0  0  0  0  0  0  0
    0.7500    1.2990    0.0000 C   0  0  0  0  0  0  0  0  0  0  0  0
  1  2  1  0
  2  3  2  0
  3  4  1  0
  4  5  2  0
  5  6  1  0
  6  7  1  0
  7  8  2  0
  8  9  1  0
  9 10  2  0
 10 11  1  0
 11 12  1  0
 12 13  2  0
 13 14  1  0
 14 15  2  0
 15 16  1  0
 16 17  2  0
 16 18  1  0
 18 19  1  0
 15 20  1  0
 20 21  1  0
  5 22  1  0
 22 23  2  0
 23  2  1  0
 11  6  1  0
 21 12  1  0
M  END
>  <Title>  (160) 
idAAGDgen8

$$$$

     RDKit          2D

 18 18  0  0  0  0  0  0  0  0999 V2000
    5.3444    0.0000    0.0000 C   0  0  0  0  0  0  0  0  0  0  0  0
    3.8444    0.0000    0.0000 C   0  0  0  0  0  0  0  0  0  0  0  0
    3.5517   -1.4712    0.0000 C   0  0  0  0  0  0  0  0  0  0  0  0
    2.7184   -2.7184    0.0000 C   0  0  0  0  0  0  0  0  0  0  0  0
    1.4712   -3.5517    0.0000 C   0  0  0  0  0  0  0  0  0  0  0  0
   -0.0000   -3.8444    0.0000 C   0  0  0  0  0  0  0  0  0  0  0  0
   -1.4712   -3.5517    0.0000 C   0  0  0  0  0  0  0  0  0  0  0  0
   -2.7184   -2.7184    0.0000 C   0  0  0  0  0  0  0  0  0  0  0  0
   -3.5517   -1.4712    0.0000 C   0  0  0  0  0  0  0  0  0  0  0  0
   -3.8444    0.0000    0.0000 C   0  0  0  0  0  0  0  0  0  0  0  0
   -3.5517    1.4712    0.0000 C   0  0  0  0  0  0  0  0  0  0  0  0
   -2.7184    2.7184    0.0000 C   0  0  0  0  0  0  0  0  0  0  0  0
   -1.4712    3.5517    0.0000 C   0  0  0  0  0  0  0  0  0  0  0  0
    0.0000    3.8444    0.0000 C   0  0  0  0  0  0  0  0  0  0  0  0
    1.4712    3.5517    0.0000 C   0  0  0  0  0  0  0  0  0  0  0  0
    2.7184    2.7184    0.0000 C   0  0  0  0  0  0  0  0  0  0  0  0
    3.5517    1.4712    0.0000 C   0  0  0  0  0  0  0  0  0  0  0  0
    4.9376    2.0452    0.0000 N   0  0  0  0  0  0  0  0  0  0  0  0
  1  2  1  0
  2  3  2  0
  3  4  1  0
  4  5  2  0
  5  6  1  0
  6  7  2  0
  7  8  1  0
  8  9  2  0
  9 10  1  0
 10 11  2  0
 11 12  1  0
 12 13  2  0
 13 14  1  0
 14 15  2  0
 15 16  1  0
 16 17  2  0
 17 18  1  0
 17  2  1  0
M  END
>  <Title>  (161) 
idAAGEgen8

$$$$

     RDKit          2D

 50 57  0  0  0  0  0  0  0  0999 V2000
    3.0000    0.0000    0.0000 C   0  0  0  0  0  0  0  0  0  0  0  0
    1.5000    0.0000    0.0000 C   0  0  0  0  0  0  0  0  0  0  0  0
    0.7500    1.2990    0.0000 C   0  0  0  0  0  0  0  0  0  0  0  0
   -0.7500    1.2990    0.0000 C   0  0  0  0  0  0  0  0  0  0  0  0
   -1.5000    0.0000    0.0000 C   0  0  0  0  0  0  0  0  0  0  0  0
   -3.0000    0.0000    0.0000 C   0  0  0  0  0  0  0  0  0  0  0  0
   -3.8817   -1.2135    0.0000 N   0  0  0  0  0  0  0  0  0  0  0  0
   -5.3083   -0.7500    0.0000 N   0  0  0  0  0  0  0  0  0  0  0  0
   -5.3083    0.7500    0.0000 N   0  0  0  0  0  0  0  0  0  0  0  0
   -3.8817    1.2135    0.0000 N   0  0  0  0  0  0  0  0  0  0  0  0
   -3.4182    2.6401    0.0000 C   0  0  0  0  0  0  0  0  0  0  0  0
   -1.9509    2.9520    0.0000 C   0  0  0  0  0  0  0  0  0  0  0  0
   -1.4874    4.3786    0.0000 C   0  0  0  0  0  0  0  0  0  0  0  0
   -2.4911    5.4933    0.0000 C   0  0  0  0  0  0  0  0  0  0  0  0
   -2.0276    6.9199    0.0000 C   0  0  0  0  0  0  0  0  0  0  0  0
   -2.9093    8.1334    0.0000 N   0  0  0  0  0  0  0  0  0  0  0  0
   -2.0276    9.3469    0.0000 N   0  0  0  0  0  0  0  0  0  0  0  0
   -0.6010    8.8834    0.0000 N   0  0  0  0  0  0  0  0  0  0  0  0
   -0.6010    7.3834    0.0000 N   0  0  0  0  0  0  0  0  0  0  0  0
    0.6125    6.5017    0.0000 C   0  0  0  0  0  0  0  0  0  0  0  0
    0.4557    5.0099    0.0000 C   0  0  0  0  0  0  0  0  0  0  0  0
    1.6693    4.1283    0.0000 C   0  0  0  0  0  0  0  0  0  0  0  0
    3.0396    4.7384    0.0000 C   0  0  0  0  0  0  0  0  0  0  0  0
    3.1964    6.2301    0.0000 C   0  0  0  0  0  0  0  0  0  0  0  0
    1.9829    7.1118    0.0000 C   0  0  0  0  0  0  0  0  0  0  0  0
   -3.9583    5.1814    0.0000 C   0  0  0  0  0  0  0  0  0  0  0  0
   -4.4218    3.7548    0.0000 C   0  0  0  0  0  0  0  0  0  0  0  0
   -5.8891    3.4430    0.0000 C   0  0  0  0  0  0  0  0  0  0  0  0
   -6.4992    2.0726    0.0000 C   0  0  0  0  0  0  0  0  0  0  0  0
   -7.9910    2.2294    0.0000 C   0  0  0  0  0  0  0  0  0  0  0  0
   -8.3028    3.6967    0.0000 C   0  0  0  0  0  0  0  0  0  0  0  0
   -9.6731    4.3068    0.0000 C   0  0  0  0  0  0  0  0  0  0  0  0
  -10.8867    3.4251    0.0000 O   0  0  0  0  0  0  0  0  0  0  0  0
   -9.8299    5.7985    0.0000 N   0  0  0  0  0  0  0  0  0  0  0  0
  -11.2003    6.4086    0.0000 C   0  0  0  0  0  0  0  0  0  0  0  0
  -12.4993    5.6586    0.0000 N   0  0  0  0  0  0  0  0  0  0  0  0
  -13.6140    6.6623    0.0000 N   0  0  0  0  0  0  0  0  0  0  0  0
  -13.0039    8.0327    0.0000 N   0  0  0  0  0  0  0  0  0  0  0  0
  -11.5121    7.8759    0.0000 N   0  0  0  0  0  0  0  0  0  0  0  0
  -10.5084    8.9906    0.0000 C   0  0  0  0  0  0  0  0  0  0  0  0
   -9.0412    8.6787    0.0000 C   0  0  0  0  0  0  0  0  0  0  0  0
   -8.0375    9.7934    0.0000 C   0  0  0  0  0  0  0  0  0  0  0  0
   -8.5010   11.2200    0.0000 C   0  0  0  0  0  0  0  0  0  0  0  0
   -9.9683   11.5319    0.0000 C   0  0  0  0  0  0  0  0  0  0  0  0
  -10.9720   10.4172    0.0000 C   0  0  0  0  0  0  0  0  0  0  0  0
   -7.0038    4.4467    0.0000 C   0  0  0  0  0  0  0  0  0  0  0  0
   -6.8470    5.9384    0.0000 O   0  0  0  0  0  0  0  0  0  0  0  0
   -0.7500   -1.2990    0.0000 C   0  0  0  0  0  0  0  0  0  0  0  0
   -1.5000   -2.5981    0.0000 O   0  0  0  0  0  0  0  0  0  0  0  0
    0.7500   -1.2990    0.0000 N   0  0  0  0  0  0  0  0  0  0  0  0
  1  2  1  0
  2  3  2  0
  3  4  1  0
  4  5  2  0
  5  6  1  0
  6  7  2  0
  7  8  1  0
  8  9  2  0
  9 10  1  0
 10 11  1  0
 11 12  2  0
 12 13  1  0
 13 14  2  0
 14 15  1  0
 15 16  2  0
 16 17  1  0
 17 18  2  0
 18 19  1  0
 19 20  1  0
 20 21  2  0
 21 22  1  0
 22 23  2  0
 23 24  1  0
 24 25  2  0
 14 26  1  0
 26 27  2  0
 27 28  1  0
 28 29  2  0
 29 30  1  0
 30 31  2  0
 31 32  1  0
 32 33  2  0
 32 34  1  0
 34 35  1  0
 35 36  2  0
 36 37  1  0
 37 38  2  0
 38 39  1  0
 39 40  1  0
 40 41  2  0
 41 42  1  0
 42 43  2  0
 43 44  1  0
 44 45  2  0
 31 46  1  0
 46 47  2  0
  5 48  1  0
 48 49  2  0
 48 50  1  0
 50  2  1  0
 10  6  1  0
 27 11  1  0
 46 28  1  0
 19 15  1  0
 25 20  1  0
 39 35  1  0
 45 40  1  0
M  END
>  <Title>  (162) 
idAAGFgen8

$$$$

     RDKit          2D

 25 27  0  0  0  0  0  0  0  0999 V2000
    3.7500   -1.2990    0.0000 C   0  0  0  0  0  0  0  0  0  0  0  0
    3.0000    0.0000    0.0000 O   0  0  0  0  0  0  0  0  0  0  0  0
    1.5000    0.0000    0.0000 C   0  0  0  0  0  0  0  0  0  0  0  0
    0.7500   -1.2990    0.0000 C   0  0  0  0  0  0  0  0  0  0  0  0
   -0.7500   -1.2990    0.0000 C   0  0  0  0  0  0  0  0  0  0  0  0
   -1.5000    0.0000    0.0000 C   0  0  0  0  0  0  0  0  0  0  0  0
   -3.0000    0.0000    0.0000 C   0  0  0  0  0  0  0  0  0  0  0  0
   -3.7500    1.2990    0.0000 C   0  0  0  0  0  0  0  0  0  0  0  0
   -3.0000    2.5981    0.0000 N   0  0  0  0  0  0  0  0  0  0  0  0
   -3.7500    3.8971    0.0000 N   0  0  0  0  0  0  0  0  0  0  0  0
   -5.2500    3.8971    0.0000 N   0  0  0  0  0  0  0  0  0  0  0  0
   -6.0000    2.5981    0.0000 N   0  0  0  0  0  0  0  0  0  0  0  0
   -5.2500    1.2990    0.0000 N   0  0  0  0  0  0  0  0  0  0  0  0
   -6.0000    0.0000    0.0000 C   0  0  0  0  0  0  0  0  0  0  0  0
   -7.5000    0.0000    0.0000 C   0  0  0  0  0  0  0  0  0  0  0  0
   -8.2500   -1.2990    0.0000 C   0  0  0  0  0  0  0  0  0  0  0  0
   -7.5000   -2.5981    0.0000 C   0  0  0  0  0  0  0  0  0  0  0  0
   -8.2500   -3.8971    0.0000 C   0  0  0  0  0  0  0  0  0  0  0  0
   -7.5000   -5.1962    0.0000 O   0  0  0  0  0  0  0  0  0  0  0  0
   -9.7500   -3.8971    0.0000 N   0  0  0  0  0  0  0  0  0  0  0  0
  -10.5000   -5.1962    0.0000 O   0  0  0  0  0  0  0  0  0  0  0  0
   -6.0000   -2.5981    0.0000 C   0  0  0  0  0  0  0  0  0  0  0  0
   -5.2500   -1.2990    0.0000 C   0  0  0  0  0  0  0  0  0  0  0  0
   -0.7500    1.2990    0.0000 C   0  0  0  0  0  0  0  0  0  0  0  0
    0.7500    1.2990    0.0000 C   0  0  0  0  0  0  0  0  0  0  0  0
  1  2  1  0
  2  3  1  0
  3  4  2  0
  4  5  1  0
  5  6  2  0
  6  7  1  0
  7  8  2  3
  8  9  1  0
  9 10  2  0
 10 11  1  0
 11 12  2  0
 12 13  1  0
 13 14  1  0
 14 15  2  0
 15 16  1  0
 16 17  2  0
 17 18  1  0
 18 19  2  0
 18 20  1  0
 20 21  1  0
 17 22  1  0
 22 23  1  0
  6 24  1  0
 24 25  2  0
 25  3  1  0
 13  8  1  0
 23 14  1  0
M  END
>  <Title>  (163) 
idAAGGgen8

$$$$

     RDKit          2D

  8  8  0  0  0  0  0  0  0  0999 V2000
    3.7500   -1.2990    0.0000 O   0  0  0  0  0  0  0  0  0  0  0  0
    3.0000    0.0000    0.0000 C   0  0  0  0  0  0  0  0  0  0  0  0
    1.5000    0.0000    0.0000 C   0  0  0  0  0  0  0  0  0  0  0  0
    0.7500   -1.2990    0.0000 C   0  0  0  0  0  0  0  0  0  0  0  0
   -0.7500   -1.2990    0.0000 C   0  0  0  0  0  0  0  0  0  0  0  0
   -1.5000    0.0000    0.0000 C   0  0  0  0  0  0  0  0  0  0  0  0
   -0.7500    1.2990    0.0000 C   0  0  0  0  0  0  0  0  0  0  0  0
    0.7500    1.2990    0.0000 N   0  0  0  0  0  0  0  0  0  0  0  0
  1  2  1  0
  2  3  1  0
  3  4  2  0
  4  5  1  0
  5  6  2  0
  6  7  1  0
  7  8  2  0
  8  3  1  0
M  END
>  <Title>  (164) 
idAAGHgen8

$$$$

     RDKit          2D

 26 26  0  0  0  0  0  0  0  0999 V2000
    7.9960   -1.2990    0.0000 C   0  0  0  0  0  0  0  0  0  0  0  0
    7.2460    0.0000    0.0000 O   0  0  0  0  0  0  0  0  0  0  0  0
    5.7460    0.0000    0.0000 C   0  0  0  0  0  0  0  0  0  0  0  0
    5.5502   -1.4872    0.0000 C   0  0  0  0  0  0  0  0  0  0  0  0
    4.9762   -2.8730    0.0000 C   0  0  0  0  0  0  0  0  0  0  0  0
    4.0630   -4.0630    0.0000 C   0  0  0  0  0  0  0  0  0  0  0  0
    2.8730   -4.9762    0.0000 C   0  0  0  0  0  0  0  0  0  0  0  0
    1.4872   -5.5502    0.0000 C   0  0  0  0  0  0  0  0  0  0  0  0
   -0.0000   -5.7460    0.0000 C   0  0  0  0  0  0  0  0  0  0  0  0
   -1.4872   -5.5502    0.0000 C   0  0  0  0  0  0  0  0  0  0  0  0
   -2.8730   -4.9762    0.0000 C   0  0  0  0  0  0  0  0  0  0  0  0
   -4.0630   -4.0630    0.0000 C   0  0  0  0  0  0  0  0  0  0  0  0
   -4.9762   -2.8730    0.0000 C   0  0  0  0  0  0  0  0  0  0  0  0
   -5.5502   -1.4872    0.0000 C   0  0  0  0  0  0  0  0  0  0  0  0
   -5.7460    0.0000    0.0000 C   0  0  0  0  0  0  0  0  0  0  0  0
   -5.5502    1.4872    0.0000 C   0  0  0  0  0  0  0  0  0  0  0  0
   -4.9762    2.8730    0.0000 C   0  0  0  0  0  0  0  0  0  0  0  0
   -4.0630    4.0630    0.0000 C   0  0  0  0  0  0  0  0  0  0  0  0
   -2.8730    4.9762    0.0000 C   0  0  0  0  0  0  0  0  0  0  0  0
   -1.4872    5.5502    0.0000 C   0  0  0  0  0  0  0  0  0  0  0  0
    0.0000    5.7460    0.0000 C   0  0  0  0  0  0  0  0  0  0  0  0
    1.4872    5.5502    0.0000 C   0  0  0  0  0  0  0  0  0  0  0  0
    2.8730    4.9762    0.0000 C   0  0  0  0  0  0  0  0  0  0  0  0
    4.0630    4.0630    0.0000 C   0  0  0  0  0  0  0  0  0  0  0  0
    4.9762    2.8730    0.0000 C   0  0  0  0  0  0  0  0  0  0  0  0
    5.5502    1.4872    0.0000 C   0  0  0  0  0  0  0  0  0  0  0  0
  1  2  1  0
  2  3  1  0
  3  4  2  0
  4  5  1  0
  5  6  2  0
  6  7  1  0
  7  8  2  0
  8  9  1  0
  9 10  2  0
 10 11  1  0
 11 12  2  0
 12 13  1  0
 13 14  2  0
 14 15  1  0
 15 16  2  0
 16 17  1  0
 17 18  2  0
 18 19  1  0
 19 20  2  0
 20 21  1  0
 21 22  2  0
 22 23  1  0
 23 24  2  0
 24 25  1  0
 25 26  1  0
 26  3  1  0
M  END
>  <Title>  (165) 
idAAGIgen8

$$$$

     RDKit          2D

 42 48  0  0  0  0  0  0  0  0999 V2000
  -10.1624    4.2767    0.0000 C   0  0  0  0  0  0  0  0  0  0  0  0
   -8.9488    3.3950    0.0000 C   0  0  0  0  0  0  0  0  0  0  0  0
   -9.1056    1.9033    0.0000 C   0  0  0  0  0  0  0  0  0  0  0  0
   -7.8921    1.0216    0.0000 C   0  0  0  0  0  0  0  0  0  0  0  0
   -6.5218    1.6317    0.0000 C   0  0  0  0  0  0  0  0  0  0  0  0
   -5.3083    0.7500    0.0000 C   0  0  0  0  0  0  0  0  0  0  0  0
   -5.3083   -0.7500    0.0000 N   0  0  0  0  0  0  0  0  0  0  0  0
   -3.8817   -1.2135    0.0000 N   0  0  0  0  0  0  0  0  0  0  0  0
   -3.0000    0.0000    0.0000 N   0  0  0  0  0  0  0  0  0  0  0  0
   -3.8817    1.2135    0.0000 N   0  0  0  0  0  0  0  0  0  0  0  0
   -3.4182    2.6401    0.0000 C   0  0  0  0  0  0  0  0  0  0  0  0
   -4.2998    3.8536    0.0000 N   0  0  0  0  0  0  0  0  0  0  0  0
   -3.4182    5.0672    0.0000 N   0  0  0  0  0  0  0  0  0  0  0  0
   -1.9916    4.6036    0.0000 N   0  0  0  0  0  0  0  0  0  0  0  0
   -1.9916    3.1036    0.0000 N   0  0  0  0  0  0  0  0  0  0  0  0
   -0.7780    2.2220    0.0000 C   0  0  0  0  0  0  0  0  0  0  0  0
   -0.9348    0.7302    0.0000 C   0  0  0  0  0  0  0  0  0  0  0  0
    0.2787   -0.1515    0.0000 C   0  0  0  0  0  0  0  0  0  0  0  0
    1.6490    0.4586    0.0000 C   0  0  0  0  0  0  0  0  0  0  0  0
    2.8625   -0.4231    0.0000 C   0  0  0  0  0  0  0  0  0  0  0  0
    4.2891    0.0404    0.0000 N   0  0  0  0  0  0  0  0  0  0  0  0
    5.1708   -1.1731    0.0000 N   0  0  0  0  0  0  0  0  0  0  0  0
    4.2891   -2.3866    0.0000 N   0  0  0  0  0  0  0  0  0  0  0  0
    2.8625   -1.9231    0.0000 N   0  0  0  0  0  0  0  0  0  0  0  0
    1.6490   -2.8048    0.0000 C   0  0  0  0  0  0  0  0  0  0  0  0
    0.2787   -2.1946    0.0000 C   0  0  0  0  0  0  0  0  0  0  0  0
   -0.9348   -3.0763    0.0000 C   0  0  0  0  0  0  0  0  0  0  0  0
   -0.7780   -4.5681    0.0000 C   0  0  0  0  0  0  0  0  0  0  0  0
    0.5923   -5.1782    0.0000 C   0  0  0  0  0  0  0  0  0  0  0  0
    1.8058   -4.2965    0.0000 C   0  0  0  0  0  0  0  0  0  0  0  0
    1.8058    1.9504    0.0000 C   0  0  0  0  0  0  0  0  0  0  0  0
    0.5923    2.8321    0.0000 C   0  0  0  0  0  0  0  0  0  0  0  0
    0.7491    4.3238    0.0000 C   0  0  0  0  0  0  0  0  0  0  0  0
    2.1194    4.9340    0.0000 C   0  0  0  0  0  0  0  0  0  0  0  0
    2.2762    6.4257    0.0000 C   0  0  0  0  0  0  0  0  0  0  0  0
    1.0627    7.3074    0.0000 C   0  0  0  0  0  0  0  0  0  0  0  0
    1.2194    8.7992    0.0000 C   0  0  0  0  0  0  0  0  0  0  0  0
   -0.3077    6.6973    0.0000 C   0  0  0  0  0  0  0  0  0  0  0  0
   -1.5212    7.5790    0.0000 O   0  0  0  0  0  0  0  0  0  0  0  0
   -0.4645    5.2055    0.0000 N   0  0  0  0  0  0  0  0  0  0  0  0
   -6.3650    3.1235    0.0000 C   0  0  0  0  0  0  0  0  0  0  0  0
   -7.5785    4.0051    0.0000 C   0  0  0  0  0  0  0  0  0  0  0  0
  1  2  1  0
  2  3  2  0
  3  4  1  0
  4  5  2  0
  5  6  1  0
  6  7  2  0
  7  8  1  0
  8  9  2  0
  9 10  1  0
 10 11  1  0
 11 12  2  0
 12 13  1  0
 13 14  2  0
 14 15  1  0
 15 16  1  0
 16 17  2  0
 17 18  1  0
 18 19  2  0
 19 20  1  0
 20 21  2  0
 21 22  1  0
 22 23  2  0
 23 24  1  0
 24 25  1  0
 25 26  2  0
 26 27  1  0
 27 28  2  0
 28 29  1  0
 29 30  2  0
 19 31  1  0
 31 32  2  0
 32 33  1  0
 33 34  2  0
 34 35  1  0
 35 36  2  0
 36 37  1  0
 36 38  1  0
 38 39  2  0
 38 40  1  0
  5 41  1  0
 41 42  2  0
 42  2  1  0
 10  6  1  0
 15 11  1  0
 32 16  1  0
 40 33  1  0
 24 20  1  0
 30 25  1  0
M  END
>  <Title>  (166) 
idAAGJgen8

$$$$

     RDKit          2D

 30 33  0  0  0  0  0  0  0  0999 V2000
    3.2286   -0.0000    0.0000 C   0  0  0  0  0  0  0  0  0  0  0  0
    1.7286    0.0000    0.0000 C   0  0  0  0  0  0  0  0  0  0  0  0
    1.0777    1.3515    0.0000 C   0  0  0  0  0  0  0  0  0  0  0  0
   -0.3846    1.6852    0.0000 C   0  0  0  0  0  0  0  0  0  0  0  0
   -1.5574    0.7500    0.0000 C   0  0  0  0  0  0  0  0  0  0  0  0
   -2.9088    1.4008    0.0000 N   0  0  0  0  0  0  0  0  0  0  0  0
   -3.0209    2.8966    0.0000 N   0  0  0  0  0  0  0  0  0  0  0  0
   -4.3724    3.5475    0.0000 N   0  0  0  0  0  0  0  0  0  0  0  0
   -5.6118    2.7025    0.0000 N   0  0  0  0  0  0  0  0  0  0  0  0
   -5.4997    1.2067    0.0000 N   0  0  0  0  0  0  0  0  0  0  0  0
   -4.1482    0.5558    0.0000 N   0  0  0  0  0  0  0  0  0  0  0  0
   -4.0361   -0.9400    0.0000 C   0  0  0  0  0  0  0  0  0  0  0  0
   -2.6847   -1.5908    0.0000 C   0  0  0  0  0  0  0  0  0  0  0  0
   -2.5726   -3.0866    0.0000 C   0  0  0  0  0  0  0  0  0  0  0  0
   -3.8119   -3.9316    0.0000 C   0  0  0  0  0  0  0  0  0  0  0  0
   -3.6998   -5.4274    0.0000 C   0  0  0  0  0  0  0  0  0  0  0  0
   -5.1634   -3.2807    0.0000 C   0  0  0  0  0  0  0  0  0  0  0  0
   -5.2755   -1.7849    0.0000 C   0  0  0  0  0  0  0  0  0  0  0  0
   -6.6269   -1.1341    0.0000 C   0  0  0  0  0  0  0  0  0  0  0  0
   -7.8663   -1.9791    0.0000 C   0  0  0  0  0  0  0  0  0  0  0  0
   -9.2177   -1.3283    0.0000 C   0  0  0  0  0  0  0  0  0  0  0  0
   -9.3298    0.1675    0.0000 C   0  0  0  0  0  0  0  0  0  0  0  0
  -10.6813    0.8184    0.0000 C   0  0  0  0  0  0  0  0  0  0  0  0
   -8.0905    1.0125    0.0000 C   0  0  0  0  0  0  0  0  0  0  0  0
   -8.2026    2.5083    0.0000 O   0  0  0  0  0  0  0  0  0  0  0  0
   -6.7390    0.3617    0.0000 N   0  0  0  0  0  0  0  0  0  0  0  0
   -1.5574   -0.7500    0.0000 N   0  0  0  0  0  0  0  0  0  0  0  0
   -0.3846   -1.6852    0.0000 C   0  0  0  0  0  0  0  0  0  0  0  0
   -0.7184   -3.1476    0.0000 O   0  0  0  0  0  0  0  0  0  0  0  0
    1.0777   -1.3515    0.0000 N   0  0  0  0  0  0  0  0  0  0  0  0
  1  2  1  0
  2  3  2  0
  3  4  1  0
  4  5  2  0
  5  6  1  0
  6  7  1  0
  7  8  2  0
  8  9  1  0
  9 10  2  0
 10 11  1  0
 11 12  1  0
 12 13  2  0
 13 14  1  0
 14 15  2  0
 15 16  1  0
 15 17  1  0
 17 18  2  0
 18 19  1  0
 19 20  2  0
 20 21  1  0
 21 22  2  0
 22 23  1  0
 22 24  1  0
 24 25  2  0
 24 26  1  0
  5 27  1  0
 27 28  1  0
 28 29  2  0
 28 30  1  0
 30  2  1  0
 11  6  1  0
 18 12  1  0
 26 19  1  0
M  END
>  <Title>  (167) 
idAAGKgen8

$$$$

     RDKit          2D

 55 63  0  0  0  0  0  0  0  0999 V2000
    3.0000    0.0000    0.0000 C   0  0  0  0  0  0  0  0  0  0  0  0
    1.5000    0.0000    0.0000 C   0  0  0  0  0  0  0  0  0  0  0  0
    0.7500   -1.2990    0.0000 C   0  0  0  0  0  0  0  0  0  0  0  0
   -0.7500   -1.2990    0.0000 C   0  0  0  0  0  0  0  0  0  0  0  0
   -1.5000    0.0000    0.0000 C   0  0  0  0  0  0  0  0  0  0  0  0
   -3.0000    0.0000    0.0000 C   0  0  0  0  0  0  0  0  0  0  0  0
   -3.7500   -1.2990    0.0000 O   0  0  0  0  0  0  0  0  0  0  0  0
   -3.7500    1.2990    0.0000 N   0  0  0  0  0  0  0  0  0  0  0  0
   -5.2500    1.2990    0.0000 C   0  0  0  0  0  0  0  0  0  0  0  0
   -6.1317    0.0855    0.0000 N   0  0  0  0  0  0  0  0  0  0  0  0
   -7.5583    0.5490    0.0000 N   0  0  0  0  0  0  0  0  0  0  0  0
   -7.5583    2.0490    0.0000 N   0  0  0  0  0  0  0  0  0  0  0  0
   -6.1317    2.5126    0.0000 N   0  0  0  0  0  0  0  0  0  0  0  0
   -5.6682    3.9391    0.0000 C   0  0  0  0  0  0  0  0  0  0  0  0
   -4.2009    4.2510    0.0000 C   0  0  0  0  0  0  0  0  0  0  0  0
   -3.7374    5.6776    0.0000 C   0  0  0  0  0  0  0  0  0  0  0  0
   -4.7411    6.7923    0.0000 C   0  0  0  0  0  0  0  0  0  0  0  0
   -4.2776    8.2189    0.0000 C   0  0  0  0  0  0  0  0  0  0  0  0
   -5.1593    9.4324    0.0000 N   0  0  0  0  0  0  0  0  0  0  0  0
   -4.2776   10.6460    0.0000 N   0  0  0  0  0  0  0  0  0  0  0  0
   -2.8510   10.1824    0.0000 N   0  0  0  0  0  0  0  0  0  0  0  0
   -2.8510    8.6824    0.0000 N   0  0  0  0  0  0  0  0  0  0  0  0
   -1.6375    7.8008    0.0000 C   0  0  0  0  0  0  0  0  0  0  0  0
   -1.7943    6.3090    0.0000 C   0  0  0  0  0  0  0  0  0  0  0  0
   -0.5807    5.4273    0.0000 C   0  0  0  0  0  0  0  0  0  0  0  0
    0.7896    6.0374    0.0000 C   0  0  0  0  0  0  0  0  0  0  0  0
    0.9464    7.5292    0.0000 C   0  0  0  0  0  0  0  0  0  0  0  0
   -0.2671    8.4109    0.0000 C   0  0  0  0  0  0  0  0  0  0  0  0
   -6.2083    6.4805    0.0000 C   0  0  0  0  0  0  0  0  0  0  0  0
   -6.6718    5.0539    0.0000 C   0  0  0  0  0  0  0  0  0  0  0  0
   -8.1391    4.7420    0.0000 C   0  0  0  0  0  0  0  0  0  0  0  0
   -8.7492    3.3717    0.0000 N   0  0  0  0  0  0  0  0  0  0  0  0
  -10.2410    3.5285    0.0000 N   0  0  0  0  0  0  0  0  0  0  0  0
  -10.5528    4.9957    0.0000 N   0  0  0  0  0  0  0  0  0  0  0  0
   -9.2538    5.7457    0.0000 N   0  0  0  0  0  0  0  0  0  0  0  0
   -9.0970    7.2375    0.0000 C   0  0  0  0  0  0  0  0  0  0  0  0
   -7.7267    7.8476    0.0000 C   0  0  0  0  0  0  0  0  0  0  0  0
   -7.5699    9.3394    0.0000 C   0  0  0  0  0  0  0  0  0  0  0  0
   -8.7834   10.2210    0.0000 C   0  0  0  0  0  0  0  0  0  0  0  0
   -8.6266   11.7128    0.0000 C   0  0  0  0  0  0  0  0  0  0  0  0
   -7.3276   12.4628    0.0000 C   0  0  0  0  0  0  0  0  0  0  0  0
   -7.6394   13.9300    0.0000 N   0  0  0  0  0  0  0  0  0  0  0  0
   -9.1312   14.0868    0.0000 N   0  0  0  0  0  0  0  0  0  0  0  0
   -9.7413   12.7165    0.0000 N   0  0  0  0  0  0  0  0  0  0  0  0
  -11.2086   12.4047    0.0000 C   0  0  0  0  0  0  0  0  0  0  0  0
  -12.2123   13.5194    0.0000 C   0  0  0  0  0  0  0  0  0  0  0  0
  -13.6795   13.2075    0.0000 C   0  0  0  0  0  0  0  0  0  0  0  0
  -14.1430   11.7809    0.0000 C   0  0  0  0  0  0  0  0  0  0  0  0
  -13.1393   10.6662    0.0000 C   0  0  0  0  0  0  0  0  0  0  0  0
  -11.6721   10.9781    0.0000 C   0  0  0  0  0  0  0  0  0  0  0  0
  -10.1537    9.6109    0.0000 C   0  0  0  0  0  0  0  0  0  0  0  0
  -11.5445   10.1728    0.0000 O   0  0  0  0  0  0  0  0  0  0  0  0
  -10.3105    8.1192    0.0000 N   0  0  0  0  0  0  0  0  0  0  0  0
   -0.7500    1.2990    0.0000 C   0  0  0  0  0  0  0  0  0  0  0  0
    0.7500    1.2990    0.0000 C   0  0  0  0  0  0  0  0  0  0  0  0
  1  2  1  0
  2  3  2  0
  3  4  1  0
  4  5  2  0
  5  6  1  0
  6  7  2  0
  6  8  1  0
  8  9  1  0
  9 10  2  0
 10 11  1  0
 11 12  2  0
 12 13  1  0
 13 14  1  0
 14 15  2  0
 15 16  1  0
 16 17  2  0
 17 18  1  0
 18 19  2  0
 19 20  1  0
 20 21  2  0
 21 22  1  0
 22 23  1  0
 23 24  2  0
 24 25  1  0
 25 26  2  0
 26 27  1  0
 27 28  2  0
 17 29  1  0
 29 30  2  0
 30 31  1  0
 31 32  2  0
 32 33  1  0
 33 34  2  0
 34 35  1  0
 35 36  1  0
 36 37  2  0
 37 38  1  0
 38 39  2  0
 39 40  1  0
 40 41  2  0
 41 42  1  0
 42 43  2  0
 43 44  1  0
 44 45  1  0
 45 46  2  0
 46 47  1  0
 47 48  2  0
 48 49  1  0
 49 50  2  0
 39 51  1  0
 51 52  2  0
 51 53  1  0
  5 54  1  0
 54 55  2  0
 55  2  1  0
 13  9  1  0
 30 14  1  0
 35 31  1  0
 53 36  1  0
 22 18  1  0
 28 23  1  0
 44 40  1  0
 50 45  1  0
M  END
>  <Title>  (168) 
idAAGLgen8

$$$$

     RDKit          2D

 14 14  0  0  0  0  0  0  0  0999 V2000
    5.1478   -1.2990    0.0000 O   0  0  0  0  0  0  0  0  0  0  0  0
    4.3978    0.0000    0.0000 C   0  0  0  0  0  0  0  0  0  0  0  0
    2.8978    0.0000    0.0000 C   0  0  0  0  0  0  0  0  0  0  0  0
    2.5095   -1.4489    0.0000 C   0  0  0  0  0  0  0  0  0  0  0  0
    1.4489   -2.5095    0.0000 C   0  0  0  0  0  0  0  0  0  0  0  0
   -0.0000   -2.8978    0.0000 C   0  0  0  0  0  0  0  0  0  0  0  0
   -1.4489   -2.5095    0.0000 C   0  0  0  0  0  0  0  0  0  0  0  0
   -2.5095   -1.4489    0.0000 C   0  0  0  0  0  0  0  0  0  0  0  0
   -2.8978    0.0000    0.0000 C   0  0  0  0  0  0  0  0  0  0  0  0
   -2.5095    1.4489    0.0000 C   0  0  0  0  0  0  0  0  0  0  0  0
   -1.4489    2.5095    0.0000 C   0  0  0  0  0  0  0  0  0  0  0  0
    0.0000    2.8978    0.0000 C   0  0  0  0  0  0  0  0  0  0  0  0
    1.4489    2.5095    0.0000 C   0  0  0  0  0  0  0  0  0  0  0  0
    2.5095    1.4489    0.0000 C   0  0  0  0  0  0  0  0  0  0  0  0
  1  2  1  0
  2  3  1  0
  3  4  2  0
  4  5  1  0
  5  6  2  0
  6  7  1  0
  7  8  2  0
  8  9  1  0
  9 10  2  0
 10 11  1  0
 11 12  2  0
 12 13  1  0
 13 14  2  0
 14  3  1  0
M  END
>  <Title>  (169) 
idAAGMgen8

$$$$

     RDKit          2D

 18 18  0  0  0  0  0  0  0  0999 V2000
    5.5816    0.0000    0.0000 O   0  0  0  0  0  0  0  0  0  0  0  0
    4.0816    0.0000    0.0000 C   0  0  0  0  0  0  0  0  0  0  0  0
    3.8060    1.4745    0.0000 C   0  0  0  0  0  0  0  0  0  0  0  0
    3.0164    2.7498    0.0000 C   0  0  0  0  0  0  0  0  0  0  0  0
    1.8193    3.6537    0.0000 C   0  0  0  0  0  0  0  0  0  0  0  0
    0.3766    4.0642    0.0000 C   0  0  0  0  0  0  0  0  0  0  0  0
   -1.1170    3.9258    0.0000 C   0  0  0  0  0  0  0  0  0  0  0  0
   -2.4597    3.2572    0.0000 C   0  0  0  0  0  0  0  0  0  0  0  0
   -3.4703    2.1487    0.0000 C   0  0  0  0  0  0  0  0  0  0  0  0
   -4.0121    0.7500    0.0000 C   0  0  0  0  0  0  0  0  0  0  0  0
   -4.0121   -0.7500    0.0000 C   0  0  0  0  0  0  0  0  0  0  0  0
   -3.4703   -2.1487    0.0000 C   0  0  0  0  0  0  0  0  0  0  0  0
   -2.4597   -3.2572    0.0000 C   0  0  0  0  0  0  0  0  0  0  0  0
   -1.1170   -3.9258    0.0000 C   0  0  0  0  0  0  0  0  0  0  0  0
    0.3766   -4.0642    0.0000 C   0  0  0  0  0  0  0  0  0  0  0  0
    1.8193   -3.6537    0.0000 C   0  0  0  0  0  0  0  0  0  0  0  0
    3.0164   -2.7498    0.0000 C   0  0  0  0  0  0  0  0  0  0  0  0
    3.8060   -1.4745    0.0000 C   0  0  0  0  0  0  0  0  0  0  0  0
  1  2  1  0
  2  3  1  0
  3  4  2  0
  4  5  1  0
  5  6  2  0
  6  7  1  0
  7  8  2  0
  8  9  1  0
  9 10  2  0
 10 11  1  0
 11 12  2  0
 12 13  1  0
 13 14  2  0
 14 15  1  0
 15 16  2  0
 16 17  1  0
 17 18  2  0
 18  2  1  0
M  END
>  <Title>  (170) 
idAAGNgen8

$$$$

     RDKit          2D

 29 32  0  0  0  0  0  0  0  0999 V2000
    3.7500   -1.2990    0.0000 C   0  0  0  0  0  0  0  0  0  0  0  0
    3.0000    0.0000    0.0000 O   0  0  0  0  0  0  0  0  0  0  0  0
    1.5000    0.0000    0.0000 C   0  0  0  0  0  0  0  0  0  0  0  0
    0.7500   -1.2990    0.0000 C   0  0  0  0  0  0  0  0  0  0  0  0
   -0.7500   -1.2990    0.0000 C   0  0  0  0  0  0  0  0  0  0  0  0
   -1.5000    0.0000    0.0000 C   0  0  0  0  0  0  0  0  0  0  0  0
   -3.0000    0.0000    0.0000 C   0  0  0  0  0  0  0  0  0  0  0  0
   -3.8817   -1.2135    0.0000 N   0  0  0  0  0  0  0  0  0  0  0  0
   -5.3083   -0.7500    0.0000 N   0  0  0  0  0  0  0  0  0  0  0  0
   -5.3083    0.7500    0.0000 N   0  0  0  0  0  0  0  0  0  0  0  0
   -3.8817    1.2135    0.0000 N   0  0  0  0  0  0  0  0  0  0  0  0
   -3.4182    2.6401    0.0000 C   0  0  0  0  0  0  0  0  0  0  0  0
   -4.2998    3.8536    0.0000 C   0  0  0  0  0  0  0  0  0  0  0  0
   -3.4182    5.0672    0.0000 C   0  0  0  0  0  0  0  0  0  0  0  0
   -1.9916    4.6036    0.0000 C   0  0  0  0  0  0  0  0  0  0  0  0
   -0.7780    5.4853    0.0000 C   0  0  0  0  0  0  0  0  0  0  0  0
   -0.9348    6.9771    0.0000 N   0  0  0  0  0  0  0  0  0  0  0  0
    0.2787    7.8588    0.0000 C   0  0  0  0  0  0  0  0  0  0  0  0
    1.6490    7.2487    0.0000 O   0  0  0  0  0  0  0  0  0  0  0  0
    0.1219    9.3506    0.0000 C   0  0  0  0  0  0  0  0  0  0  0  0
   -1.1771   10.1006    0.0000 N   0  0  0  0  0  0  0  0  0  0  0  0
   -0.8653   11.5678    0.0000 N   0  0  0  0  0  0  0  0  0  0  0  0
    0.6265   11.7246    0.0000 N   0  0  0  0  0  0  0  0  0  0  0  0
    1.2366   10.3543    0.0000 N   0  0  0  0  0  0  0  0  0  0  0  0
   -1.9916    3.1036    0.0000 C   0  0  0  0  0  0  0  0  0  0  0  0
   -0.7780    2.2220    0.0000 O   0  0  0  0  0  0  0  0  0  0  0  0
   -0.7500    1.2990    0.0000 N   0  0  0  0  0  0  0  0  0  0  0  0
    0.7500    1.2990    0.0000 C   0  0  0  0  0  0  0  0  0  0  0  0
    1.5000    2.5981    0.0000 O   0  0  0  0  0  0  0  0  0  0  0  0
  1  2  1  0
  2  3  1  0
  3  4  2  0
  4  5  1  0
  5  6  2  0
  6  7  1  0
  7  8  2  0
  8  9  1  0
  9 10  2  0
 10 11  1  0
 11 12  1  0
 12 13  2  0
 13 14  1  0
 14 15  2  0
 15 16  1  0
 16 17  1  0
 17 18  1  0
 18 19  2  0
 18 20  1  0
 20 21  2  0
 21 22  1  0
 22 23  2  0
 23 24  1  0
 15 25  1  0
 25 26  2  0
  6 27  1  0
 27 28  1  0
 28 29  2  0
 28  3  1  0
 11  7  1  0
 25 12  1  0
 24 20  1  0
M  END
>  <Title>  (171) 
idAAGOgen8

$$$$

     RDKit          2D

 24 24  0  0  0  0  0  0  0  0999 V2000
    6.7700    0.0000    0.0000 C   0  0  0  0  0  0  0  0  0  0  0  0
    5.2700    0.0000    0.0000 C   0  0  0  0  0  0  0  0  0  0  0  0
    5.0565   -1.4847    0.0000 C   0  0  0  0  0  0  0  0  0  0  0  0
    4.4334   -2.8492    0.0000 C   0  0  0  0  0  0  0  0  0  0  0  0
    3.4511   -3.9828    0.0000 C   0  0  0  0  0  0  0  0  0  0  0  0
    2.1892   -4.7938    0.0000 C   0  0  0  0  0  0  0  0  0  0  0  0
    0.7500   -5.2164    0.0000 C   0  0  0  0  0  0  0  0  0  0  0  0
   -0.7500   -5.2164    0.0000 C   0  0  0  0  0  0  0  0  0  0  0  0
   -2.1892   -4.7938    0.0000 C   0  0  0  0  0  0  0  0  0  0  0  0
   -3.4511   -3.9828    0.0000 C   0  0  0  0  0  0  0  0  0  0  0  0
   -4.4334   -2.8492    0.0000 C   0  0  0  0  0  0  0  0  0  0  0  0
   -5.0565   -1.4847    0.0000 C   0  0  0  0  0  0  0  0  0  0  0  0
   -5.2700    0.0000    0.0000 C   0  0  0  0  0  0  0  0  0  0  0  0
   -5.0565    1.4847    0.0000 C   0  0  0  0  0  0  0  0  0  0  0  0
   -4.4334    2.8492    0.0000 C   0  0  0  0  0  0  0  0  0  0  0  0
   -3.4511    3.9828    0.0000 C   0  0  0  0  0  0  0  0  0  0  0  0
   -2.1892    4.7938    0.0000 C   0  0  0  0  0  0  0  0  0  0  0  0
   -0.7500    5.2164    0.0000 C   0  0  0  0  0  0  0  0  0  0  0  0
    0.7500    5.2164    0.0000 C   0  0  0  0  0  0  0  0  0  0  0  0
    2.1892    4.7938    0.0000 C   0  0  0  0  0  0  0  0  0  0  0  0
    3.4511    3.9828    0.0000 C   0  0  0  0  0  0  0  0  0  0  0  0
    4.4334    2.8492    0.0000 C   0  0  0  0  0  0  0  0  0  0  0  0
    5.0565    1.4847    0.0000 C   0  0  0  0  0  0  0  0  0  0  0  0
    6.4958    1.9073    0.0000 N   0  0  0  0  0  0  0  0  0  0  0  0
  1  2  1  0
  2  3  2  0
  3  4  1  0
  4  5  2  0
  5  6  1  0
  6  7  2  0
  7  8  1  0
  8  9  2  0
  9 10  1  0
 10 11  2  0
 11 12  1  0
 12 13  2  0
 13 14  1  0
 14 15  2  0
 15 16  1  0
 16 17  2  0
 17 18  1  0
 18 19  2  0
 19 20  1  0
 20 21  2  0
 21 22  1  0
 22 23  2  0
 23 24  1  0
 23  2  1  0
M  END
>  <Title>  (172) 
idAAGPgen8

$$$$

     RDKit          2D

 50 56  0  0  0  0  0  0  0  0999 V2000
  -10.0116   12.6589    0.0000 C   0  0  0  0  0  0  0  0  0  0  0  0
   -9.9443   11.1604    0.0000 C   0  0  0  0  0  0  0  0  0  0  0  0
   -8.5650   10.5708    0.0000 C   0  0  0  0  0  0  0  0  0  0  0  0
   -8.1659    9.1249    0.0000 C   0  0  0  0  0  0  0  0  0  0  0  0
   -9.0476    7.9114    0.0000 C   0  0  0  0  0  0  0  0  0  0  0  0
   -8.3368    6.5905    0.0000 C   0  0  0  0  0  0  0  0  0  0  0  0
   -9.1253    5.3144    0.0000 O   0  0  0  0  0  0  0  0  0  0  0  0
   -6.8375    6.5456    0.0000 N   0  0  0  0  0  0  0  0  0  0  0  0
   -6.1267    5.2247    0.0000 C   0  0  0  0  0  0  0  0  0  0  0  0
   -6.7775    3.8732    0.0000 N   0  0  0  0  0  0  0  0  0  0  0  0
   -5.6933    2.8367    0.0000 N   0  0  0  0  0  0  0  0  0  0  0  0
   -4.3724    3.5475    0.0000 N   0  0  0  0  0  0  0  0  0  0  0  0
   -4.6402    5.0234    0.0000 N   0  0  0  0  0  0  0  0  0  0  0  0
   -3.6036    6.1075    0.0000 C   0  0  0  0  0  0  0  0  0  0  0  0
   -3.8715    7.5834    0.0000 C   0  0  0  0  0  0  0  0  0  0  0  0
   -2.5506    8.2942    0.0000 N   0  0  0  0  0  0  0  0  0  0  0  0
   -1.4664    7.2576    0.0000 N   0  0  0  0  0  0  0  0  0  0  0  0
   -2.1172    5.9062    0.0000 N   0  0  0  0  0  0  0  0  0  0  0  0
   -1.4064    4.5853    0.0000 C   0  0  0  0  0  0  0  0  0  0  0  0
   -2.1949    3.3093    0.0000 C   0  0  0  0  0  0  0  0  0  0  0  0
   -1.4841    1.9884    0.0000 C   0  0  0  0  0  0  0  0  0  0  0  0
    0.0152    1.9435    0.0000 C   0  0  0  0  0  0  0  0  0  0  0  0
    0.8037    3.2195    0.0000 C   0  0  0  0  0  0  0  0  0  0  0  0
    0.0929    4.5404    0.0000 C   0  0  0  0  0  0  0  0  0  0  0  0
    0.8814    5.8164    0.0000 C   0  0  0  0  0  0  0  0  0  0  0  0
    0.3126    7.2044    0.0000 C   0  0  0  0  0  0  0  0  0  0  0  0
    1.4569    8.1743    0.0000 N   0  0  0  0  0  0  0  0  0  0  0  0
    2.7329    7.3858    0.0000 N   0  0  0  0  0  0  0  0  0  0  0  0
    2.3773    5.9285    0.0000 N   0  0  0  0  0  0  0  0  0  0  0  0
    3.3472    4.7843    0.0000 C   0  0  0  0  0  0  0  0  0  0  0  0
    4.8430    4.8964    0.0000 C   0  0  0  0  0  0  0  0  0  0  0  0
    5.4118    3.5084    0.0000 C   0  0  0  0  0  0  0  0  0  0  0  0
    4.2676    2.5385    0.0000 C   0  0  0  0  0  0  0  0  0  0  0  0
    4.3796    1.0427    0.0000 C   0  0  0  0  0  0  0  0  0  0  0  0
    3.1403    0.1978    0.0000 O   0  0  0  0  0  0  0  0  0  0  0  0
    5.7311    0.3919    0.0000 N   0  0  0  0  0  0  0  0  0  0  0  0
    5.8432   -1.1039    0.0000 C   0  0  0  0  0  0  0  0  0  0  0  0
    4.6038   -1.9489    0.0000 C   0  0  0  0  0  0  0  0  0  0  0  0
    4.7159   -3.4447    0.0000 C   0  0  0  0  0  0  0  0  0  0  0  0
    6.0674   -4.0955    0.0000 C   0  0  0  0  0  0  0  0  0  0  0  0
    6.1795   -5.5913    0.0000 C   0  0  0  0  0  0  0  0  0  0  0  0
    7.3067   -3.2505    0.0000 N   0  0  0  0  0  0  0  0  0  0  0  0
    7.1946   -1.7547    0.0000 C   0  0  0  0  0  0  0  0  0  0  0  0
    8.4340   -0.9097    0.0000 O   0  0  0  0  0  0  0  0  0  0  0  0
    2.9915    3.3271    0.0000 C   0  0  0  0  0  0  0  0  0  0  0  0
    1.6036    2.7582    0.0000 O   0  0  0  0  0  0  0  0  0  0  0  0
  -10.5461    7.8441    0.0000 N   0  0  0  0  0  0  0  0  0  0  0  0
  -11.5330    8.9737    0.0000 C   0  0  0  0  0  0  0  0  0  0  0  0
  -12.9789    8.5746    0.0000 O   0  0  0  0  0  0  0  0  0  0  0  0
  -11.2651   10.4496    0.0000 N   0  0  0  0  0  0  0  0  0  0  0  0
  1  2  1  0
  2  3  2  0
  3  4  1  0
  4  5  2  0
  5  6  1  0
  6  7  2  0
  6  8  1  0
  8  9  1  0
  9 10  2  0
 10 11  1  0
 11 12  2  0
 12 13  1  0
 13 14  1  0
 14 15  2  0
 15 16  1  0
 16 17  2  0
 17 18  1  0
 18 19  1  0
 19 20  2  0
 20 21  1  0
 21 22  2  0
 22 23  1  0
 23 24  2  0
 24 25  1  0
 25 26  2  0
 26 27  1  0
 27 28  2  0
 28 29  1  0
 29 30  1  0
 30 31  2  0
 31 32  1  0
 32 33  2  0
 33 34  1  0
 34 35  2  0
 34 36  1  0
 36 37  1  0
 37 38  2  0
 38 39  1  0
 39 40  2  0
 40 41  1  0
 40 42  1  0
 42 43  1  0
 43 44  2  0
 33 45  1  0
 45 46  2  0
  5 47  1  0
 47 48  1  0
 48 49  2  0
 48 50  1  0
 50  2  1  0
 13  9  1  0
 18 14  1  0
 24 19  1  0
 29 25  1  0
 45 30  1  0
 43 37  1  0
M  END
>  <Title>  (173) 
idAAGQgen8

$$$$

     RDKit          2D

 11 11  0  0  0  0  0  0  0  0999 V2000
    3.4598   -0.0000    0.0000 C   0  0  0  0  0  0  0  0  0  0  0  0
    1.9598    0.0000    0.0000 C   0  0  0  0  0  0  0  0  0  0  0  0
    1.3858   -1.3858    0.0000 C   0  0  0  0  0  0  0  0  0  0  0  0
   -0.0000   -1.9598    0.0000 C   0  0  0  0  0  0  0  0  0  0  0  0
   -1.3858   -1.3858    0.0000 C   0  0  0  0  0  0  0  0  0  0  0  0
   -1.9598    0.0000    0.0000 C   0  0  0  0  0  0  0  0  0  0  0  0
   -1.3858    1.3858    0.0000 C   0  0  0  0  0  0  0  0  0  0  0  0
   -2.4465    2.4465    0.0000 N   0  0  0  0  0  0  0  0  0  0  0  0
    0.0000    1.9598    0.0000 C   0  0  0  0  0  0  0  0  0  0  0  0
    0.0000    3.4598    0.0000 O   0  0  0  0  0  0  0  0  0  0  0  0
    1.3858    1.3858    0.0000 N   0  0  0  0  0  0  0  0  0  0  0  0
  1  2  1  0
  2  3  2  0
  3  4  1  0
  4  5  2  0
  5  6  1  0
  6  7  2  0
  7  8  1  0
  7  9  1  0
  9 10  2  0
  9 11  1  0
 11  2  1  0
M  END
>  <Title>  (174) 
idAAGRgen8

$$$$

     RDKit          2D

  9  9  0  0  0  0  0  0  0  0999 V2000
    3.7500   -1.2990    0.0000 C   0  0  0  0  0  0  0  0  0  0  0  0
    3.0000    0.0000    0.0000 C   0  0  0  0  0  0  0  0  0  0  0  0
    1.5000    0.0000    0.0000 C   0  0  0  0  0  0  0  0  0  0  0  0
    0.7500   -1.2990    0.0000 C   0  0  0  0  0  0  0  0  0  0  0  0
   -0.7500   -1.2990    0.0000 C   0  0  0  0  0  0  0  0  0  0  0  0
   -1.5000    0.0000    0.0000 C   0  0  0  0  0  0  0  0  0  0  0  0
   -0.7500    1.2990    0.0000 C   0  0  0  0  0  0  0  0  0  0  0  0
    0.7500    1.2990    0.0000 C   0  0  0  0  0  0  0  0  0  0  0  0
    1.5000    2.5981    0.0000 O   0  0  0  0  0  0  0  0  0  0  0  0
  1  2  1  0
  2  3  1  0
  3  4  2  0
  4  5  1  0
  5  6  2  0
  6  7  1  0
  7  8  2  0
  8  9  1  0
  8  3  1  0
M  END
>  <Title>  (175) 
idAAGSgen8

$$$$

     RDKit          2D

 50 57  0  0  0  0  0  0  0  0999 V2000
    3.0000    0.0000    0.0000 C   0  0  0  0  0  0  0  0  0  0  0  0
    1.5000    0.0000    0.0000 C   0  0  0  0  0  0  0  0  0  0  0  0
    0.7500    1.2990    0.0000 C   0  0  0  0  0  0  0  0  0  0  0  0
   -0.7500    1.2990    0.0000 C   0  0  0  0  0  0  0  0  0  0  0  0
   -1.5000    0.0000    0.0000 C   0  0  0  0  0  0  0  0  0  0  0  0
   -3.0000    0.0000    0.0000 C   0  0  0  0  0  0  0  0  0  0  0  0
   -3.8817   -1.2135    0.0000 N   0  0  0  0  0  0  0  0  0  0  0  0
   -5.3083   -0.7500    0.0000 N   0  0  0  0  0  0  0  0  0  0  0  0
   -5.3083    0.7500    0.0000 N   0  0  0  0  0  0  0  0  0  0  0  0
   -3.8817    1.2135    0.0000 N   0  0  0  0  0  0  0  0  0  0  0  0
   -3.4182    2.6401    0.0000 C   0  0  0  0  0  0  0  0  0  0  0  0
   -1.9509    2.9520    0.0000 C   0  0  0  0  0  0  0  0  0  0  0  0
   -1.4874    4.3786    0.0000 C   0  0  0  0  0  0  0  0  0  0  0  0
   -2.4911    5.4933    0.0000 C   0  0  0  0  0  0  0  0  0  0  0  0
   -2.0276    6.9199    0.0000 C   0  0  0  0  0  0  0  0  0  0  0  0
   -2.9093    8.1334    0.0000 N   0  0  0  0  0  0  0  0  0  0  0  0
   -2.0276    9.3469    0.0000 N   0  0  0  0  0  0  0  0  0  0  0  0
   -0.6010    8.8834    0.0000 N   0  0  0  0  0  0  0  0  0  0  0  0
   -0.6010    7.3834    0.0000 N   0  0  0  0  0  0  0  0  0  0  0  0
    0.6125    6.5017    0.0000 C   0  0  0  0  0  0  0  0  0  0  0  0
    0.4557    5.0099    0.0000 C   0  0  0  0  0  0  0  0  0  0  0  0
    1.6693    4.1283    0.0000 C   0  0  0  0  0  0  0  0  0  0  0  0
    3.0396    4.7384    0.0000 C   0  0  0  0  0  0  0  0  0  0  0  0
    3.1964    6.2301    0.0000 C   0  0  0  0  0  0  0  0  0  0  0  0
    1.9829    7.1118    0.0000 C   0  0  0  0  0  0  0  0  0  0  0  0
   -3.9583    5.1814    0.0000 C   0  0  0  0  0  0  0  0  0  0  0  0
   -4.4218    3.7548    0.0000 C   0  0  0  0  0  0  0  0  0  0  0  0
   -5.8891    3.4430    0.0000 C   0  0  0  0  0  0  0  0  0  0  0  0
   -6.8928    4.5577    0.0000 C   0  0  0  0  0  0  0  0  0  0  0  0
   -8.3600    4.2458    0.0000 C   0  0  0  0  0  0  0  0  0  0  0  0
   -8.8235    2.8192    0.0000 C   0  0  0  0  0  0  0  0  0  0  0  0
  -10.2907    2.5074    0.0000 C   0  0  0  0  0  0  0  0  0  0  0  0
  -10.7543    1.0808    0.0000 O   0  0  0  0  0  0  0  0  0  0  0  0
  -11.2944    3.6221    0.0000 N   0  0  0  0  0  0  0  0  0  0  0  0
  -12.7617    3.3102    0.0000 C   0  0  0  0  0  0  0  0  0  0  0  0
  -13.3718    1.9399    0.0000 N   0  0  0  0  0  0  0  0  0  0  0  0
  -14.8635    2.0967    0.0000 N   0  0  0  0  0  0  0  0  0  0  0  0
  -15.1754    3.5639    0.0000 N   0  0  0  0  0  0  0  0  0  0  0  0
  -13.8764    4.3139    0.0000 N   0  0  0  0  0  0  0  0  0  0  0  0
  -13.7196    5.8057    0.0000 C   0  0  0  0  0  0  0  0  0  0  0  0
  -12.3493    6.4158    0.0000 C   0  0  0  0  0  0  0  0  0  0  0  0
  -12.1925    7.9076    0.0000 C   0  0  0  0  0  0  0  0  0  0  0  0
  -13.4060    8.7893    0.0000 C   0  0  0  0  0  0  0  0  0  0  0  0
  -14.7763    8.1791    0.0000 C   0  0  0  0  0  0  0  0  0  0  0  0
  -14.9331    6.6874    0.0000 C   0  0  0  0  0  0  0  0  0  0  0  0
   -7.8198    1.7045    0.0000 C   0  0  0  0  0  0  0  0  0  0  0  0
   -6.3526    2.0164    0.0000 C   0  0  0  0  0  0  0  0  0  0  0  0
   -0.7500   -1.2990    0.0000 C   0  0  0  0  0  0  0  0  0  0  0  0
   -1.5000   -2.5981    0.0000 O   0  0  0  0  0  0  0  0  0  0  0  0
    0.7500   -1.2990    0.0000 N   0  0  0  0  0  0  0  0  0  0  0  0
  1  2  1  0
  2  3  2  0
  3  4  1  0
  4  5  2  0
  5  6  1  0
  6  7  2  0
  7  8  1  0
  8  9  2  0
  9 10  1  0
 10 11  1  0
 11 12  2  0
 12 13  1  0
 13 14  2  0
 14 15  1  0
 15 16  2  0
 16 17  1  0
 17 18  2  0
 18 19  1  0
 19 20  1  0
 20 21  2  0
 21 22  1  0
 22 23  2  0
 23 24  1  0
 24 25  2  0
 14 26  1  0
 26 27  2  0
 27 28  1  0
 28 29  2  0
 29 30  1  0
 30 31  2  0
 31 32  1  0
 32 33  2  0
 32 34  1  0
 34 35  1  0
 35 36  2  0
 36 37  1  0
 37 38  2  0
 38 39  1  0
 39 40  1  0
 40 41  2  0
 41 42  1  0
 42 43  2  0
 43 44  1  0
 44 45  2  0
 31 46  1  0
 46 47  2  0
  5 48  1  0
 48 49  2  0
 48 50  1  0
 50  2  1  0
 10  6  1  0
 27 11  1  0
 47 28  1  0
 19 15  1  0
 25 20  1  0
 39 35  1  0
 45 40  1  0
M  END
>  <Title>  (176) 
idAAGTgen8

$$$$

     RDKit          2D

 17 17  0  0  0  0  0  0  0  0999 V2000
    5.1073    0.0000    0.0000 C   0  0  0  0  0  0  0  0  0  0  0  0
    3.6073    0.0000    0.0000 C   0  0  0  0  0  0  0  0  0  0  0  0
    3.2954    1.4672    0.0000 C   0  0  0  0  0  0  0  0  0  0  0  0
    2.4138    2.6807    0.0000 C   0  0  0  0  0  0  0  0  0  0  0  0
    1.1147    3.4307    0.0000 C   0  0  0  0  0  0  0  0  0  0  0  0
   -0.3771    3.5875    0.0000 C   0  0  0  0  0  0  0  0  0  0  0  0
   -1.8037    3.1240    0.0000 C   0  0  0  0  0  0  0  0  0  0  0  0
   -2.9184    2.1203    0.0000 C   0  0  0  0  0  0  0  0  0  0  0  0
   -3.5285    0.7500    0.0000 C   0  0  0  0  0  0  0  0  0  0  0  0
   -3.5285   -0.7500    0.0000 C   0  0  0  0  0  0  0  0  0  0  0  0
   -2.9184   -2.1203    0.0000 C   0  0  0  0  0  0  0  0  0  0  0  0
   -1.8037   -3.1240    0.0000 C   0  0  0  0  0  0  0  0  0  0  0  0
   -0.3771   -3.5875    0.0000 C   0  0  0  0  0  0  0  0  0  0  0  0
    1.1147   -3.4307    0.0000 C   0  0  0  0  0  0  0  0  0  0  0  0
    2.4138   -2.6807    0.0000 C   0  0  0  0  0  0  0  0  0  0  0  0
    3.2954   -1.4672    0.0000 C   0  0  0  0  0  0  0  0  0  0  0  0
    4.6658   -2.0773    0.0000 O   0  0  0  0  0  0  0  0  0  0  0  0
  1  2  1  0
  2  3  2  0
  3  4  1  0
  4  5  2  0
  5  6  2  0
  6  7  1  0
  7  8  2  0
  8  9  1  0
  9 10  2  0
 10 11  1  0
 11 12  2  0
 12 13  1  0
 13 14  2  0
 14 15  1  0
 15 16  2  0
 16 17  1  0
 16  2  1  0
M  END
>  <Title>  (177) 
idAAGUgen8

$$$$

     RDKit          2D

 27 28  0  0  0  0  0  0  0  0999 V2000
   -4.7881    4.4441    0.0000 C   0  0  0  0  0  0  0  0  0  0  0  0
   -3.3548    4.8863    0.0000 C   0  0  0  0  0  0  0  0  0  0  0  0
   -3.5783    6.3695    0.0000 C   0  0  0  0  0  0  0  0  0  0  0  0
   -3.3548    7.8528    0.0000 C   0  0  0  0  0  0  0  0  0  0  0  0
   -2.7039    9.2042    0.0000 C   0  0  0  0  0  0  0  0  0  0  0  0
   -1.6837   10.3038    0.0000 C   0  0  0  0  0  0  0  0  0  0  0  0
   -0.3846   11.0538    0.0000 C   0  0  0  0  0  0  0  0  0  0  0  0
    1.0777   11.3876    0.0000 C   0  0  0  0  0  0  0  0  0  0  0  0
    2.5736   11.2755    0.0000 C   0  0  0  0  0  0  0  0  0  0  0  0
    3.9699   10.7275    0.0000 C   0  0  0  0  0  0  0  0  0  0  0  0
    5.1426    9.7922    0.0000 C   0  0  0  0  0  0  0  0  0  0  0  0
    5.9876    8.5529    0.0000 C   0  0  0  0  0  0  0  0  0  0  0  0
    6.4297    7.1195    0.0000 C   0  0  0  0  0  0  0  0  0  0  0  0
    6.4297    5.6195    0.0000 C   0  0  0  0  0  0  0  0  0  0  0  0
    5.9876    4.1862    0.0000 C   0  0  0  0  0  0  0  0  0  0  0  0
    5.1426    2.9468    0.0000 C   0  0  0  0  0  0  0  0  0  0  0  0
    3.9699    2.0116    0.0000 C   0  0  0  0  0  0  0  0  0  0  0  0
    2.5736    1.4635    0.0000 C   0  0  0  0  0  0  0  0  0  0  0  0
    1.0777    1.3515    0.0000 C   0  0  0  0  0  0  0  0  0  0  0  0
    1.7286    0.0000    0.0000 C   0  0  0  0  0  0  0  0  0  0  0  0
    1.0777   -1.3515    0.0000 C   0  0  0  0  0  0  0  0  0  0  0  0
   -0.3846   -1.6852    0.0000 C   0  0  0  0  0  0  0  0  0  0  0  0
   -1.5574   -0.7500    0.0000 C   0  0  0  0  0  0  0  0  0  0  0  0
   -1.5574    0.7500    0.0000 C   0  0  0  0  0  0  0  0  0  0  0  0
   -0.3846    1.6852    0.0000 C   0  0  0  0  0  0  0  0  0  0  0  0
   -1.6837    2.4352    0.0000 N   0  0  0  0  0  0  0  0  0  0  0  0
   -2.7039    3.5348    0.0000 C   0  0  0  0  0  0  0  0  0  0  0  0
  1  2  1  0
  2  3  2  0
  3  4  1  0
  4  5  2  0
  5  6  1  0
  6  7  2  0
  7  8  1  0
  8  9  2  0
  9 10  1  0
 10 11  2  0
 11 12  1  0
 12 13  2  0
 13 14  1  0
 14 15  2  0
 15 16  1  0
 16 17  2  0
 17 18  1  0
 18 19  2  0
 19 20  1  0
 20 21  1  0
 21 22  1  0
 22 23  2  0
 23 24  1  0
 24 25  2  0
 25 26  1  0
 26 27  1  0
 27  2  1  0
 25 19  1  0
M  END
>  <Title>  (178) 
idAAGVgen8

$$$$

     RDKit          2D

 41 47  0  0  0  0  0  0  0  0999 V2000
    3.0000    0.0000    0.0000 C   0  0  0  0  0  0  0  0  0  0  0  0
    1.5000    0.0000    0.0000 C   0  0  0  0  0  0  0  0  0  0  0  0
    0.7500   -1.2990    0.0000 C   0  0  0  0  0  0  0  0  0  0  0  0
   -0.7500   -1.2990    0.0000 C   0  0  0  0  0  0  0  0  0  0  0  0
   -1.5000    0.0000    0.0000 C   0  0  0  0  0  0  0  0  0  0  0  0
   -3.0000    0.0000    0.0000 C   0  0  0  0  0  0  0  0  0  0  0  0
   -3.8817   -1.2135    0.0000 N   0  0  0  0  0  0  0  0  0  0  0  0
   -5.3083   -0.7500    0.0000 N   0  0  0  0  0  0  0  0  0  0  0  0
   -5.3083    0.7500    0.0000 N   0  0  0  0  0  0  0  0  0  0  0  0
   -3.8817    1.2135    0.0000 N   0  0  0  0  0  0  0  0  0  0  0  0
   -3.4182    2.6401    0.0000 C   0  0  0  0  0  0  0  0  0  0  0  0
   -1.9509    2.9520    0.0000 C   0  0  0  0  0  0  0  0  0  0  0  0
   -1.4874    4.3786    0.0000 C   0  0  0  0  0  0  0  0  0  0  0  0
   -2.4911    5.4933    0.0000 C   0  0  0  0  0  0  0  0  0  0  0  0
   -2.0276    6.9199    0.0000 C   0  0  0  0  0  0  0  0  0  0  0  0
   -2.9093    8.1334    0.0000 N   0  0  0  0  0  0  0  0  0  0  0  0
   -2.0276    9.3469    0.0000 N   0  0  0  0  0  0  0  0  0  0  0  0
   -0.6010    8.8834    0.0000 N   0  0  0  0  0  0  0  0  0  0  0  0
   -0.6010    7.3834    0.0000 N   0  0  0  0  0  0  0  0  0  0  0  0
    0.6125    6.5017    0.0000 C   0  0  0  0  0  0  0  0  0  0  0  0
    0.4557    5.0099    0.0000 C   0  0  0  0  0  0  0  0  0  0  0  0
    1.6693    4.1283    0.0000 C   0  0  0  0  0  0  0  0  0  0  0  0
    3.0396    4.7384    0.0000 C   0  0  0  0  0  0  0  0  0  0  0  0
    3.1964    6.2301    0.0000 C   0  0  0  0  0  0  0  0  0  0  0  0
    1.9829    7.1118    0.0000 C   0  0  0  0  0  0  0  0  0  0  0  0
    2.1396    8.6036    0.0000 C   0  0  0  0  0  0  0  0  0  0  0  0
    0.9261    9.4853    0.0000 C   0  0  0  0  0  0  0  0  0  0  0  0
    1.0829   10.9771    0.0000 C   0  0  0  0  0  0  0  0  0  0  0  0
    2.4532   11.5872    0.0000 C   0  0  0  0  0  0  0  0  0  0  0  0
    3.6668   10.7055    0.0000 C   0  0  0  0  0  0  0  0  0  0  0  0
    3.5100    9.2137    0.0000 C   0  0  0  0  0  0  0  0  0  0  0  0
    4.7235    8.3320    0.0000 C   0  0  0  0  0  0  0  0  0  0  0  0
    6.0938    8.9421    0.0000 C   0  0  0  0  0  0  0  0  0  0  0  0
    7.3073    8.0605    0.0000 C   0  0  0  0  0  0  0  0  0  0  0  0
    7.1505    6.5687    0.0000 C   0  0  0  0  0  0  0  0  0  0  0  0
    5.7802    5.9586    0.0000 C   0  0  0  0  0  0  0  0  0  0  0  0
    4.5667    6.8402    0.0000 C   0  0  0  0  0  0  0  0  0  0  0  0
   -3.9583    5.1814    0.0000 C   0  0  0  0  0  0  0  0  0  0  0  0
   -4.4218    3.7548    0.0000 C   0  0  0  0  0  0  0  0  0  0  0  0
   -0.7500    1.2990    0.0000 C   0  0  0  0  0  0  0  0  0  0  0  0
    0.7500    1.2990    0.0000 C   0  0  0  0  0  0  0  0  0  0  0  0
  1  2  1  0
  2  3  2  0
  3  4  1  0
  4  5  2  0
  5  6  1  0
  6  7  2  0
  7  8  1  0
  8  9  2  0
  9 10  1  0
 10 11  1  0
 11 12  2  0
 12 13  1  0
 13 14  2  0
 14 15  1  0
 15 16  2  0
 16 17  1  0
 17 18  2  0
 18 19  1  0
 19 20  1  0
 20 21  2  0
 21 22  1  0
 22 23  2  0
 23 24  1  0
 24 25  2  0
 25 26  1  0
 26 27  2  0
 27 28  1  0
 28 29  2  0
 29 30  1  0
 30 31  2  0
 31 32  1  0
 32 33  2  0
 33 34  1  0
 34 35  2  0
 35 36  1  0
 36 37  2  0
 14 38  1  0
 38 39  2  0
  5 40  1  0
 40 41  2  0
 41  2  1  0
 10  6  1  0
 39 11  1  0
 19 15  1  0
 25 20  1  0
 31 26  1  0
 37 32  1  0
M  END
>  <Title>  (179) 
idAAGWgen8

$$$$

     RDKit          2D

 28 28  0  0  0  0  0  0  0  0999 V2000
    7.9960   -1.2990    0.0000 C   0  0  0  0  0  0  0  0  0  0  0  0
    7.2460    0.0000    0.0000 O   0  0  0  0  0  0  0  0  0  0  0  0
    5.7460    0.0000    0.0000 C   0  0  0  0  0  0  0  0  0  0  0  0
    5.5502   -1.4872    0.0000 C   0  0  0  0  0  0  0  0  0  0  0  0
    4.9762   -2.8730    0.0000 C   0  0  0  0  0  0  0  0  0  0  0  0
    4.0630   -4.0630    0.0000 C   0  0  0  0  0  0  0  0  0  0  0  0
    2.8730   -4.9762    0.0000 C   0  0  0  0  0  0  0  0  0  0  0  0
    1.4872   -5.5502    0.0000 C   0  0  0  0  0  0  0  0  0  0  0  0
   -0.0000   -5.7460    0.0000 C   0  0  0  0  0  0  0  0  0  0  0  0
   -1.4872   -5.5502    0.0000 C   0  0  0  0  0  0  0  0  0  0  0  0
   -2.8730   -4.9762    0.0000 C   0  0  0  0  0  0  0  0  0  0  0  0
   -4.0630   -4.0630    0.0000 C   0  0  0  0  0  0  0  0  0  0  0  0
   -4.9762   -2.8730    0.0000 C   0  0  0  0  0  0  0  0  0  0  0  0
   -5.5502   -1.4872    0.0000 C   0  0  0  0  0  0  0  0  0  0  0  0
   -5.7460    0.0000    0.0000 C   0  0  0  0  0  0  0  0  0  0  0  0
   -5.5502    1.4872    0.0000 C   0  0  0  0  0  0  0  0  0  0  0  0
   -4.9762    2.8730    0.0000 C   0  0  0  0  0  0  0  0  0  0  0  0
   -4.0630    4.0630    0.0000 C   0  0  0  0  0  0  0  0  0  0  0  0
   -2.8730    4.9762    0.0000 C   0  0  0  0  0  0  0  0  0  0  0  0
   -1.4872    5.5502    0.0000 C   0  0  0  0  0  0  0  0  0  0  0  0
    0.0000    5.7460    0.0000 C   0  0  0  0  0  0  0  0  0  0  0  0
    1.4872    5.5502    0.0000 C   0  0  0  0  0  0  0  0  0  0  0  0
    1.8754    6.9991    0.0000 C   0  0  0  0  0  0  0  0  0  0  0  0
    2.8730    4.9762    0.0000 C   0  0  0  0  0  0  0  0  0  0  0  0
    3.6230    6.2752    0.0000 C   0  0  0  0  0  0  0  0  0  0  0  0
    4.0630    4.0630    0.0000 C   0  0  0  0  0  0  0  0  0  0  0  0
    4.9762    2.8730    0.0000 C   0  0  0  0  0  0  0  0  0  0  0  0
    5.5502    1.4872    0.0000 C   0  0  0  0  0  0  0  0  0  0  0  0
  1  2  1  0
  2  3  1  0
  3  4  2  0
  4  5  1  0
  5  6  2  0
  6  7  1  0
  7  8  2  0
  8  9  1  0
  9 10  2  0
 10 11  1  0
 11 12  2  0
 12 13  1  0
 13 14  2  0
 14 15  1  0
 15 16  2  0
 16 17  1  0
 17 18  2  0
 18 19  1  0
 19 20  2  0
 20 21  1  0
 21 22  2  0
 22 23  1  0
 22 24  1  0
 24 25  1  0
 24 26  2  0
 26 27  1  0
 27 28  2  0
 28  3  1  0
M  END
>  <Title>  (180) 
idAAGXgen8

$$$$

     RDKit          2D

 35 39  0  0  0  0  0  0  0  0999 V2000
  -10.1624    4.2767    0.0000 C   0  0  0  0  0  0  0  0  0  0  0  0
   -8.9488    3.3950    0.0000 C   0  0  0  0  0  0  0  0  0  0  0  0
   -7.5785    4.0051    0.0000 C   0  0  0  0  0  0  0  0  0  0  0  0
   -6.3650    3.1235    0.0000 C   0  0  0  0  0  0  0  0  0  0  0  0
   -6.5218    1.6317    0.0000 C   0  0  0  0  0  0  0  0  0  0  0  0
   -5.3083    0.7500    0.0000 C   0  0  0  0  0  0  0  0  0  0  0  0
   -5.3083   -0.7500    0.0000 N   0  0  0  0  0  0  0  0  0  0  0  0
   -3.8817   -1.2135    0.0000 N   0  0  0  0  0  0  0  0  0  0  0  0
   -3.0000    0.0000    0.0000 N   0  0  0  0  0  0  0  0  0  0  0  0
   -3.8817    1.2135    0.0000 N   0  0  0  0  0  0  0  0  0  0  0  0
   -3.4182    2.6401    0.0000 C   0  0  0  0  0  0  0  0  0  0  0  0
   -4.2998    3.8536    0.0000 C   0  0  0  0  0  0  0  0  0  0  0  0
   -3.4182    5.0672    0.0000 N   0  0  0  0  0  0  0  0  0  0  0  0
   -1.9916    4.6036    0.0000 N   0  0  0  0  0  0  0  0  0  0  0  0
   -1.9916    3.1036    0.0000 N   0  0  0  0  0  0  0  0  0  0  0  0
   -0.7780    2.2220    0.0000 C   0  0  0  0  0  0  0  0  0  0  0  0
   -0.7780    0.7220    0.0000 C   0  0  0  0  0  0  0  0  0  0  0  0
    0.6485    0.2584    0.0000 C   0  0  0  0  0  0  0  0  0  0  0  0
    1.5302    1.4720    0.0000 C   0  0  0  0  0  0  0  0  0  0  0  0
    3.0302    1.4720    0.0000 C   0  0  0  0  0  0  0  0  0  0  0  0
    3.7802    2.7710    0.0000 C   0  0  0  0  0  0  0  0  0  0  0  0
    5.2802    2.7710    0.0000 C   0  0  0  0  0  0  0  0  0  0  0  0
    6.0302    1.4720    0.0000 C   0  0  0  0  0  0  0  0  0  0  0  0
    7.5302    1.4720    0.0000 C   0  0  0  0  0  0  0  0  0  0  0  0
    8.2802    0.1729    0.0000 O   0  0  0  0  0  0  0  0  0  0  0  0
    8.2802    2.7710    0.0000 N   0  0  0  0  0  0  0  0  0  0  0  0
    9.7802    2.7710    0.0000 O   0  0  0  0  0  0  0  0  0  0  0  0
    5.2802    0.1729    0.0000 N   0  0  0  0  0  0  0  0  0  0  0  0
    3.7802    0.1729    0.0000 C   0  0  0  0  0  0  0  0  0  0  0  0
    3.0302   -1.1261    0.0000 O   0  0  0  0  0  0  0  0  0  0  0  0
    0.6485    2.6855    0.0000 C   0  0  0  0  0  0  0  0  0  0  0  0
    1.1121    4.1121    0.0000 O   0  0  0  0  0  0  0  0  0  0  0  0
   -7.8921    1.0216    0.0000 C   0  0  0  0  0  0  0  0  0  0  0  0
   -8.0489   -0.4702    0.0000 O   0  0  0  0  0  0  0  0  0  0  0  0
   -9.1056    1.9033    0.0000 N   0  0  0  0  0  0  0  0  0  0  0  0
  1  2  1  0
  2  3  2  0
  3  4  1  0
  4  5  2  0
  5  6  1  0
  6  7  2  0
  7  8  1  0
  8  9  2  0
  9 10  1  0
 10 11  1  0
 11 12  2  0
 12 13  1  0
 13 14  2  0
 14 15  1  0
 15 16  1  0
 16 17  2  0
 17 18  1  0
 18 19  2  0
 19 20  1  0
 20 21  2  0
 21 22  1  0
 22 23  2  0
 23 24  1  0
 24 25  2  0
 24 26  1  0
 26 27  1  0
 23 28  1  0
 28 29  1  0
 29 30  2  0
 19 31  1  0
 31 32  2  0
  5 33  1  0
 33 34  2  0
 33 35  1  0
 35  2  1  0
 10  6  1  0
 15 11  1  0
 31 16  1  0
 29 20  1  0
M  END
>  <Title>  (181) 
idAAGYgen8

$$$$

     RDKit          2D

 35 39  0  0  0  0  0  0  0  0999 V2000
    3.0000    0.0000    0.0000 C   0  0  0  0  0  0  0  0  0  0  0  0
    1.5000    0.0000    0.0000 C   0  0  0  0  0  0  0  0  0  0  0  0
    0.7500   -1.2990    0.0000 C   0  0  0  0  0  0  0  0  0  0  0  0
   -0.7500   -1.2990    0.0000 C   0  0  0  0  0  0  0  0  0  0  0  0
   -1.5000    0.0000    0.0000 C   0  0  0  0  0  0  0  0  0  0  0  0
   -3.0000    0.0000    0.0000 C   0  0  0  0  0  0  0  0  0  0  0  0
   -3.7500   -1.2990    0.0000 O   0  0  0  0  0  0  0  0  0  0  0  0
   -3.7500    1.2990    0.0000 N   0  0  0  0  0  0  0  0  0  0  0  0
   -5.2500    1.2990    0.0000 C   0  0  0  0  0  0  0  0  0  0  0  0
   -6.1317    0.0855    0.0000 N   0  0  0  0  0  0  0  0  0  0  0  0
   -7.5583    0.5490    0.0000 N   0  0  0  0  0  0  0  0  0  0  0  0
   -7.5583    2.0490    0.0000 N   0  0  0  0  0  0  0  0  0  0  0  0
   -6.1317    2.5126    0.0000 N   0  0  0  0  0  0  0  0  0  0  0  0
   -5.6682    3.9391    0.0000 C   0  0  0  0  0  0  0  0  0  0  0  0
   -6.5498    5.1527    0.0000 C   0  0  0  0  0  0  0  0  0  0  0  0
   -5.6682    6.3662    0.0000 C   0  0  0  0  0  0  0  0  0  0  0  0
   -4.2416    5.9027    0.0000 C   0  0  0  0  0  0  0  0  0  0  0  0
   -3.0280    6.7844    0.0000 C   0  0  0  0  0  0  0  0  0  0  0  0
   -1.6577    6.1742    0.0000 C   0  0  0  0  0  0  0  0  0  0  0  0
   -0.4442    7.0559    0.0000 C   0  0  0  0  0  0  0  0  0  0  0  0
   -0.6010    8.5477    0.0000 C   0  0  0  0  0  0  0  0  0  0  0  0
   -1.9713    9.1578    0.0000 C   0  0  0  0  0  0  0  0  0  0  0  0
   -3.1848    8.2761    0.0000 C   0  0  0  0  0  0  0  0  0  0  0  0
   -4.5552    8.8862    0.0000 C   0  0  0  0  0  0  0  0  0  0  0  0
   -5.8542    8.1362    0.0000 C   0  0  0  0  0  0  0  0  0  0  0  0
   -6.9689    9.1399    0.0000 C   0  0  0  0  0  0  0  0  0  0  0  0
   -6.3588   10.5103    0.0000 C   0  0  0  0  0  0  0  0  0  0  0  0
   -7.1088   11.8093    0.0000 C   0  0  0  0  0  0  0  0  0  0  0  0
   -6.3588   13.1083    0.0000 N   0  0  0  0  0  0  0  0  0  0  0  0
   -4.8670   10.3535    0.0000 C   0  0  0  0  0  0  0  0  0  0  0  0
   -3.8633   11.4682    0.0000 O   0  0  0  0  0  0  0  0  0  0  0  0
   -4.2416    4.4027    0.0000 C   0  0  0  0  0  0  0  0  0  0  0  0
   -3.0280    3.5210    0.0000 O   0  0  0  0  0  0  0  0  0  0  0  0
   -0.7500    1.2990    0.0000 C   0  0  0  0  0  0  0  0  0  0  0  0
    0.7500    1.2990    0.0000 C   0  0  0  0  0  0  0  0  0  0  0  0
  1  2  1  0
  2  3  2  0
  3  4  1  0
  4  5  2  0
  5  6  1  0
  6  7  2  0
  6  8  1  0
  8  9  1  0
  9 10  2  0
 10 11  1  0
 11 12  2  0
 12 13  1  0
 13 14  1  0
 14 15  2  0
 15 16  1  0
 16 17  2  0
 17 18  1  0
 18 19  2  0
 19 20  1  0
 20 21  2  0
 21 22  1  0
 22 23  2  0
 23 24  1  0
 24 25  2  0
 25 26  1  0
 26 27  2  0
 27 28  1  0
 28 29  1  0
 27 30  1  0
 30 31  2  0
 17 32  1  0
 32 33  2  0
  5 34  1  0
 34 35  2  0
 35  2  1  0
 13  9  1  0
 32 14  1  0
 23 18  1  0
 30 24  1  0
M  END
>  <Title>  (182) 
idAAGZgen8

$$$$

     RDKit          2D

 12 12  0  0  0  0  0  0  0  0999 V2000
    3.9271    0.0000    0.0000 C   0  0  0  0  0  0  0  0  0  0  0  0
    2.4271    0.0000    0.0000 C   0  0  0  0  0  0  0  0  0  0  0  0
    1.9635   -1.4266    0.0000 C   0  0  0  0  0  0  0  0  0  0  0  0
    0.7500   -2.3083    0.0000 C   0  0  0  0  0  0  0  0  0  0  0  0
   -0.7500   -2.3083    0.0000 C   0  0  0  0  0  0  0  0  0  0  0  0
   -1.9635   -1.4266    0.0000 C   0  0  0  0  0  0  0  0  0  0  0  0
   -2.4271    0.0000    0.0000 C   0  0  0  0  0  0  0  0  0  0  0  0
   -1.9635    1.4266    0.0000 C   0  0  0  0  0  0  0  0  0  0  0  0
   -0.7500    2.3083    0.0000 C   0  0  0  0  0  0  0  0  0  0  0  0
    0.7500    2.3083    0.0000 C   0  0  0  0  0  0  0  0  0  0  0  0
    1.9635    1.4266    0.0000 C   0  0  0  0  0  0  0  0  0  0  0  0
    3.1771    2.3083    0.0000 N   0  0  0  0  0  0  0  0  0  0  0  0
  1  2  1  0
  2  3  2  0
  3  4  1  0
  4  5  2  0
  5  6  1  0
  6  7  2  0
  7  8  1  0
  8  9  2  0
  9 10  1  0
 10 11  2  0
 11 12  1  0
 11  2  1  0
M  END
>  <Title>  (183) 
idAAHAgen8

$$$$

     RDKit          2D

 51 58  0  0  0  0  0  0  0  0999 V2000
    3.7500    1.2990    0.0000 C   0  0  0  0  0  0  0  0  0  0  0  0
    3.0000    0.0000    0.0000 O   0  0  0  0  0  0  0  0  0  0  0  0
    1.5000    0.0000    0.0000 C   0  0  0  0  0  0  0  0  0  0  0  0
    0.7500    1.2990    0.0000 C   0  0  0  0  0  0  0  0  0  0  0  0
   -0.7500    1.2990    0.0000 C   0  0  0  0  0  0  0  0  0  0  0  0
   -1.5000    0.0000    0.0000 C   0  0  0  0  0  0  0  0  0  0  0  0
   -3.0000    0.0000    0.0000 C   0  0  0  0  0  0  0  0  0  0  0  0
   -3.8817   -1.2135    0.0000 N   0  0  0  0  0  0  0  0  0  0  0  0
   -5.3083   -0.7500    0.0000 N   0  0  0  0  0  0  0  0  0  0  0  0
   -5.3083    0.7500    0.0000 N   0  0  0  0  0  0  0  0  0  0  0  0
   -3.8817    1.2135    0.0000 N   0  0  0  0  0  0  0  0  0  0  0  0
   -3.4182    2.6401    0.0000 C   0  0  0  0  0  0  0  0  0  0  0  0
   -1.9509    2.9520    0.0000 C   0  0  0  0  0  0  0  0  0  0  0  0
   -1.4874    4.3786    0.0000 C   0  0  0  0  0  0  0  0  0  0  0  0
   -2.4911    5.4933    0.0000 C   0  0  0  0  0  0  0  0  0  0  0  0
   -2.0276    6.9199    0.0000 C   0  0  0  0  0  0  0  0  0  0  0  0
   -3.0313    8.0346    0.0000 O   0  0  0  0  0  0  0  0  0  0  0  0
   -0.5604    7.2317    0.0000 N   0  0  0  0  0  0  0  0  0  0  0  0
   -0.0968    8.6583    0.0000 C   0  0  0  0  0  0  0  0  0  0  0  0
   -0.9785    9.8718    0.0000 N   0  0  0  0  0  0  0  0  0  0  0  0
   -0.0968   11.0854    0.0000 N   0  0  0  0  0  0  0  0  0  0  0  0
    1.3298   10.6218    0.0000 N   0  0  0  0  0  0  0  0  0  0  0  0
    1.3298    9.1218    0.0000 N   0  0  0  0  0  0  0  0  0  0  0  0
    2.5433    8.2402    0.0000 C   0  0  0  0  0  0  0  0  0  0  0  0
    2.3865    6.7484    0.0000 C   0  0  0  0  0  0  0  0  0  0  0  0
    3.6000    5.8667    0.0000 C   0  0  0  0  0  0  0  0  0  0  0  0
    4.9703    6.4768    0.0000 C   0  0  0  0  0  0  0  0  0  0  0  0
    5.1271    7.9686    0.0000 C   0  0  0  0  0  0  0  0  0  0  0  0
    3.9136    8.8503    0.0000 C   0  0  0  0  0  0  0  0  0  0  0  0
   -3.9583    5.1814    0.0000 C   0  0  0  0  0  0  0  0  0  0  0  0
   -4.4218    3.7548    0.0000 C   0  0  0  0  0  0  0  0  0  0  0  0
   -5.8891    3.4430    0.0000 C   0  0  0  0  0  0  0  0  0  0  0  0
   -6.4992    2.0726    0.0000 C   0  0  0  0  0  0  0  0  0  0  0  0
   -7.9910    2.2294    0.0000 C   0  0  0  0  0  0  0  0  0  0  0  0
   -8.3028    3.6967    0.0000 C   0  0  0  0  0  0  0  0  0  0  0  0
   -9.6731    4.3068    0.0000 C   0  0  0  0  0  0  0  0  0  0  0  0
  -10.9722    3.5568    0.0000 N   0  0  0  0  0  0  0  0  0  0  0  0
  -12.0869    4.5605    0.0000 N   0  0  0  0  0  0  0  0  0  0  0  0
  -11.4768    5.9308    0.0000 N   0  0  0  0  0  0  0  0  0  0  0  0
   -9.9850    5.7740    0.0000 N   0  0  0  0  0  0  0  0  0  0  0  0
   -8.9813    6.8887    0.0000 C   0  0  0  0  0  0  0  0  0  0  0  0
   -7.5141    6.5768    0.0000 C   0  0  0  0  0  0  0  0  0  0  0  0
   -6.5104    7.6915    0.0000 C   0  0  0  0  0  0  0  0  0  0  0  0
   -6.9739    9.1181    0.0000 C   0  0  0  0  0  0  0  0  0  0  0  0
   -8.4411    9.4300    0.0000 C   0  0  0  0  0  0  0  0  0  0  0  0
   -9.4448    8.3153    0.0000 C   0  0  0  0  0  0  0  0  0  0  0  0
   -7.0038    4.4467    0.0000 C   0  0  0  0  0  0  0  0  0  0  0  0
   -6.8470    5.9384    0.0000 O   0  0  0  0  0  0  0  0  0  0  0  0
   -0.7500   -1.2990    0.0000 C   0  0  0  0  0  0  0  0  0  0  0  0
   -1.5000   -2.5981    0.0000 O   0  0  0  0  0  0  0  0  0  0  0  0
    0.7500   -1.2990    0.0000 N   0  0  0  0  0  0  0  0  0  0  0  0
  1  2  1  0
  2  3  1  0
  3  4  2  0
  4  5  1  0
  5  6  2  0
  6  7  1  0
  7  8  2  0
  8  9  1  0
  9 10  2  0
 10 11  1  0
 11 12  1  0
 12 13  2  0
 13 14  1  0
 14 15  2  0
 15 16  1  0
 16 17  2  0
 16 18  1  0
 18 19  1  0
 19 20  2  0
 20 21  1  0
 21 22  2  0
 22 23  1  0
 23 24  1  0
 24 25  2  0
 25 26  1  0
 26 27  2  0
 27 28  1  0
 28 29  2  0
 15 30  1  0
 30 31  2  0
 31 32  1  0
 32 33  2  0
 33 34  1  0
 34 35  2  0
 35 36  1  0
 36 37  2  0
 37 38  1  0
 38 39  2  0
 39 40  1  0
 40 41  1  0
 41 42  2  0
 42 43  1  0
 43 44  2  0
 44 45  1  0
 45 46  2  0
 35 47  1  0
 47 48  2  0
  6 49  1  0
 49 50  2  0
 49 51  1  0
 51  3  1  0
 11  7  1  0
 31 12  1  0
 47 32  1  0
 23 19  1  0
 29 24  1  0
 40 36  1  0
 46 41  1  0
M  END
>  <Title>  (184) 
idAAHBgen8

$$$$

     RDKit          2D

 34 34  0  0  0  0  0  0  0  0999 V2000
    9.9017   -1.2990    0.0000 C   0  0  0  0  0  0  0  0  0  0  0  0
    9.1517    0.0000    0.0000 O   0  0  0  0  0  0  0  0  0  0  0  0
    7.6517    0.0000    0.0000 C   0  0  0  0  0  0  0  0  0  0  0  0
    7.5047   -1.4928    0.0000 C   0  0  0  0  0  0  0  0  0  0  0  0
    7.0693   -2.9282    0.0000 C   0  0  0  0  0  0  0  0  0  0  0  0
    6.3622   -4.2511    0.0000 C   0  0  0  0  0  0  0  0  0  0  0  0
    5.4106   -5.4106    0.0000 C   0  0  0  0  0  0  0  0  0  0  0  0
    4.2511   -6.3622    0.0000 C   0  0  0  0  0  0  0  0  0  0  0  0
    2.9282   -7.0693    0.0000 C   0  0  0  0  0  0  0  0  0  0  0  0
    1.4928   -7.5047    0.0000 C   0  0  0  0  0  0  0  0  0  0  0  0
   -0.0000   -7.6517    0.0000 C   0  0  0  0  0  0  0  0  0  0  0  0
   -1.4928   -7.5047    0.0000 C   0  0  0  0  0  0  0  0  0  0  0  0
   -2.9282   -7.0693    0.0000 C   0  0  0  0  0  0  0  0  0  0  0  0
   -4.2511   -6.3622    0.0000 C   0  0  0  0  0  0  0  0  0  0  0  0
   -5.4106   -5.4106    0.0000 C   0  0  0  0  0  0  0  0  0  0  0  0
   -6.3622   -4.2511    0.0000 C   0  0  0  0  0  0  0  0  0  0  0  0
   -7.0693   -2.9282    0.0000 C   0  0  0  0  0  0  0  0  0  0  0  0
   -7.5047   -1.4928    0.0000 C   0  0  0  0  0  0  0  0  0  0  0  0
   -7.6517    0.0000    0.0000 C   0  0  0  0  0  0  0  0  0  0  0  0
   -7.5047    1.4928    0.0000 C   0  0  0  0  0  0  0  0  0  0  0  0
   -7.0693    2.9282    0.0000 C   0  0  0  0  0  0  0  0  0  0  0  0
   -6.3622    4.2511    0.0000 C   0  0  0  0  0  0  0  0  0  0  0  0
   -5.4106    5.4106    0.0000 C   0  0  0  0  0  0  0  0  0  0  0  0
   -4.2511    6.3622    0.0000 C   0  0  0  0  0  0  0  0  0  0  0  0
   -2.9282    7.0693    0.0000 C   0  0  0  0  0  0  0  0  0  0  0  0
   -1.4928    7.5047    0.0000 C   0  0  0  0  0  0  0  0  0  0  0  0
    0.0000    7.6517    0.0000 C   0  0  0  0  0  0  0  0  0  0  0  0
    1.4928    7.5047    0.0000 C   0  0  0  0  0  0  0  0  0  0  0  0
    2.9282    7.0693    0.0000 C   0  0  0  0  0  0  0  0  0  0  0  0
    4.2511    6.3622    0.0000 C   0  0  0  0  0  0  0  0  0  0  0  0
    5.4106    5.4106    0.0000 C   0  0  0  0  0  0  0  0  0  0  0  0
    6.3622    4.2511    0.0000 C   0  0  0  0  0  0  0  0  0  0  0  0
    7.0693    2.9282    0.0000 C   0  0  0  0  0  0  0  0  0  0  0  0
    7.5047    1.4928    0.0000 C   0  0  0  0  0  0  0  0  0  0  0  0
  1  2  1  0
  2  3  1  0
  3  4  2  0
  4  5  1  0
  5  6  2  0
  6  7  1  0
  7  8  2  0
  8  9  1  0
  9 10  2  0
 10 11  1  0
 11 12  2  0
 12 13  1  0
 13 14  2  0
 14 15  1  0
 15 16  2  0
 16 17  1  0
 17 18  2  0
 18 19  1  0
 19 20  2  0
 20 21  1  0
 21 22  2  0
 22 23  1  0
 23 24  2  0
 24 25  1  0
 25 26  2  0
 26 27  1  0
 27 28  2  0
 28 29  1  0
 29 30  2  0
 30 31  1  0
 31 32  2  0
 32 33  1  0
 33 34  2  0
 34  3  1  0
M  END
>  <Title>  (185) 
idAAHCgen8

$$$$

     RDKit          2D

 40 45  0  0  0  0  0  0  0  0999 V2000
   -5.2500   -9.0933    0.0000 C   0  0  0  0  0  0  0  0  0  0  0  0
   -6.0000   -7.7942    0.0000 C   0  0  0  0  0  0  0  0  0  0  0  0
   -7.5000   -7.7942    0.0000 O   0  0  0  0  0  0  0  0  0  0  0  0
   -5.2500   -6.4952    0.0000 N   0  0  0  0  0  0  0  0  0  0  0  0
   -6.0000   -5.1962    0.0000 C   0  0  0  0  0  0  0  0  0  0  0  0
   -7.5000   -5.1962    0.0000 O   0  0  0  0  0  0  0  0  0  0  0  0
   -5.2500   -3.8971    0.0000 C   0  0  0  0  0  0  0  0  0  0  0  0
   -3.7500   -3.8971    0.0000 C   0  0  0  0  0  0  0  0  0  0  0  0
   -3.0000   -2.5981    0.0000 C   0  0  0  0  0  0  0  0  0  0  0  0
   -3.7500   -1.2990    0.0000 C   0  0  0  0  0  0  0  0  0  0  0  0
   -3.0000    0.0000    0.0000 N   0  0  0  0  0  0  0  0  0  0  0  0
   -3.7500    1.2990    0.0000 C   0  0  0  0  0  0  0  0  0  0  0  0
   -5.2418    1.4558    0.0000 N   0  0  0  0  0  0  0  0  0  0  0  0
   -5.5537    2.9231    0.0000 N   0  0  0  0  0  0  0  0  0  0  0  0
   -4.2546    3.6731    0.0000 N   0  0  0  0  0  0  0  0  0  0  0  0
   -3.1399    2.6694    0.0000 N   0  0  0  0  0  0  0  0  0  0  0  0
   -1.6727    2.9812    0.0000 C   0  0  0  0  0  0  0  0  0  0  0  0
   -0.6690    1.8665    0.0000 C   0  0  0  0  0  0  0  0  0  0  0  0
    0.7982    2.1784    0.0000 C   0  0  0  0  0  0  0  0  0  0  0  0
    1.2618    3.6050    0.0000 C   0  0  0  0  0  0  0  0  0  0  0  0
    2.7290    3.9168    0.0000 C   0  0  0  0  0  0  0  0  0  0  0  0
    3.8437    2.9131    0.0000 N   0  0  0  0  0  0  0  0  0  0  0  0
    5.1427    3.6631    0.0000 N   0  0  0  0  0  0  0  0  0  0  0  0
    4.8309    5.1304    0.0000 N   0  0  0  0  0  0  0  0  0  0  0  0
    3.3391    5.2871    0.0000 N   0  0  0  0  0  0  0  0  0  0  0  0
    2.5891    6.5862    0.0000 C   0  0  0  0  0  0  0  0  0  0  0  0
    1.0973    6.7430    0.0000 N   0  0  0  0  0  0  0  0  0  0  0  0
    0.7854    8.2102    0.0000 N   0  0  0  0  0  0  0  0  0  0  0  0
    2.0845    8.9602    0.0000 N   0  0  0  0  0  0  0  0  0  0  0  0
    3.1992    7.9565    0.0000 N   0  0  0  0  0  0  0  0  0  0  0  0
    4.6664    8.2684    0.0000 C   0  0  0  0  0  0  0  0  0  0  0  0
    5.1299    9.6950    0.0000 C   0  0  0  0  0  0  0  0  0  0  0  0
    6.5972   10.0068    0.0000 C   0  0  0  0  0  0  0  0  0  0  0  0
    7.6009    8.8921    0.0000 C   0  0  0  0  0  0  0  0  0  0  0  0
    7.1373    7.4655    0.0000 C   0  0  0  0  0  0  0  0  0  0  0  0
    5.6701    7.1537    0.0000 C   0  0  0  0  0  0  0  0  0  0  0  0
    0.2581    4.7197    0.0000 C   0  0  0  0  0  0  0  0  0  0  0  0
   -1.2091    4.4078    0.0000 C   0  0  0  0  0  0  0  0  0  0  0  0
   -5.2500   -1.2990    0.0000 C   0  0  0  0  0  0  0  0  0  0  0  0
   -6.0000   -2.5981    0.0000 C   0  0  0  0  0  0  0  0  0  0  0  0
  1  2  1  0
  2  3  2  0
  2  4  1  0
  4  5  1  0
  5  6  2  0
  5  7  1  0
  7  8  1  0
  8  9  2  0
  9 10  1  0
 10 11  1  0
 11 12  1  0
 12 13  2  0
 13 14  1  0
 14 15  2  0
 15 16  1  0
 16 17  1  0
 17 18  2  0
 18 19  1  0
 19 20  2  0
 20 21  1  0
 21 22  2  0
 22 23  1  0
 23 24  2  0
 24 25  1  0
 25 26  1  0
 26 27  2  0
 27 28  1  0
 28 29  2  0
 29 30  1  0
 30 31  1  0
 31 32  2  0
 32 33  1  0
 33 34  2  0
 34 35  1  0
 35 36  2  0
 20 37  1  0
 37 38  2  0
 10 39  2  0
 39 40  1  0
 40  7  1  0
 16 12  1  0
 38 17  1  0
 25 21  1  0
 30 26  1  0
 36 31  1  0
M  END
>  <Title>  (186) 
idAAHDgen8

$$$$

     RDKit          2D

 64 73  0  0  0  0  0  0  0  0999 V2000
  -15.2460   -4.2722    0.0000 C   0  0  0  0  0  0  0  0  0  0  0  0
  -14.4960   -2.9731    0.0000 C   0  0  0  0  0  0  0  0  0  0  0  0
  -15.2460   -1.6741    0.0000 C   0  0  0  0  0  0  0  0  0  0  0  0
  -14.4960   -0.3751    0.0000 C   0  0  0  0  0  0  0  0  0  0  0  0
  -12.9960   -0.3751    0.0000 C   0  0  0  0  0  0  0  0  0  0  0  0
  -12.2460    0.9240    0.0000 C   0  0  0  0  0  0  0  0  0  0  0  0
  -12.8561    2.2943    0.0000 N   0  0  0  0  0  0  0  0  0  0  0  0
  -11.7414    3.2980    0.0000 N   0  0  0  0  0  0  0  0  0  0  0  0
  -10.4424    2.5480    0.0000 N   0  0  0  0  0  0  0  0  0  0  0  0
  -10.7543    1.0808    0.0000 N   0  0  0  0  0  0  0  0  0  0  0  0
   -9.7506   -0.0339    0.0000 C   0  0  0  0  0  0  0  0  0  0  0  0
  -10.2141   -1.4605    0.0000 C   0  0  0  0  0  0  0  0  0  0  0  0
   -9.2104   -2.5752    0.0000 C   0  0  0  0  0  0  0  0  0  0  0  0
   -7.7432   -2.2634    0.0000 C   0  0  0  0  0  0  0  0  0  0  0  0
   -7.2796   -0.8368    0.0000 C   0  0  0  0  0  0  0  0  0  0  0  0
   -8.2833    0.2779    0.0000 C   0  0  0  0  0  0  0  0  0  0  0  0
   -7.8198    1.7045    0.0000 C   0  0  0  0  0  0  0  0  0  0  0  0
   -8.8235    2.8192    0.0000 C   0  0  0  0  0  0  0  0  0  0  0  0
   -8.3600    4.2458    0.0000 C   0  0  0  0  0  0  0  0  0  0  0  0
   -6.8928    4.5577    0.0000 C   0  0  0  0  0  0  0  0  0  0  0  0
   -5.8891    3.4430    0.0000 C   0  0  0  0  0  0  0  0  0  0  0  0
   -6.3526    2.0164    0.0000 C   0  0  0  0  0  0  0  0  0  0  0  0
   -5.3489    0.9017    0.0000 N   0  0  0  0  0  0  0  0  0  0  0  0
   -5.8124   -0.5249    0.0000 N   0  0  0  0  0  0  0  0  0  0  0  0
   -4.8087   -1.6396    0.0000 N   0  0  0  0  0  0  0  0  0  0  0  0
   -3.3415   -1.3278    0.0000 N   0  0  0  0  0  0  0  0  0  0  0  0
   -2.8780    0.0988    0.0000 N   0  0  0  0  0  0  0  0  0  0  0  0
   -3.8817    1.2135    0.0000 N   0  0  0  0  0  0  0  0  0  0  0  0
   -3.4182    2.6401    0.0000 C   0  0  0  0  0  0  0  0  0  0  0  0
   -4.2998    3.8536    0.0000 N   0  0  0  0  0  0  0  0  0  0  0  0
   -3.4182    5.0672    0.0000 N   0  0  0  0  0  0  0  0  0  0  0  0
   -1.9916    4.6036    0.0000 N   0  0  0  0  0  0  0  0  0  0  0  0
   -1.9916    3.1036    0.0000 N   0  0  0  0  0  0  0  0  0  0  0  0
   -0.7780    2.2220    0.0000 C   0  0  0  0  0  0  0  0  0  0  0  0
   -0.9348    0.7302    0.0000 C   0  0  0  0  0  0  0  0  0  0  0  0
    0.2787   -0.1515    0.0000 C   0  0  0  0  0  0  0  0  0  0  0  0
    1.6490    0.4586    0.0000 C   0  0  0  0  0  0  0  0  0  0  0  0
    2.8625   -0.4231    0.0000 C   0  0  0  0  0  0  0  0  0  0  0  0
    2.7057   -1.9149    0.0000 C   0  0  0  0  0  0  0  0  0  0  0  0
    3.9193   -2.7965    0.0000 C   0  0  0  0  0  0  0  0  0  0  0  0
    5.2896   -2.1864    0.0000 C   0  0  0  0  0  0  0  0  0  0  0  0
    6.5031   -3.0681    0.0000 C   0  0  0  0  0  0  0  0  0  0  0  0
    7.8734   -2.4580    0.0000 O   0  0  0  0  0  0  0  0  0  0  0  0
    6.3463   -4.5599    0.0000 N   0  0  0  0  0  0  0  0  0  0  0  0
    7.5598   -5.4416    0.0000 O   0  0  0  0  0  0  0  0  0  0  0  0
    5.4464   -0.6946    0.0000 C   0  0  0  0  0  0  0  0  0  0  0  0
    4.2329    0.1870    0.0000 C   0  0  0  0  0  0  0  0  0  0  0  0
    1.8058    1.9504    0.0000 C   0  0  0  0  0  0  0  0  0  0  0  0
    0.5923    2.8321    0.0000 C   0  0  0  0  0  0  0  0  0  0  0  0
    0.7491    4.3238    0.0000 C   0  0  0  0  0  0  0  0  0  0  0  0
   -0.3656    5.3275    0.0000 N   0  0  0  0  0  0  0  0  0  0  0  0
    0.2445    6.6979    0.0000 N   0  0  0  0  0  0  0  0  0  0  0  0
    1.7362    6.5411    0.0000 N   0  0  0  0  0  0  0  0  0  0  0  0
    2.0481    5.0738    0.0000 N   0  0  0  0  0  0  0  0  0  0  0  0
    3.4184    4.4637    0.0000 C   0  0  0  0  0  0  0  0  0  0  0  0
    3.5752    2.9720    0.0000 C   0  0  0  0  0  0  0  0  0  0  0  0
    4.9455    2.3619    0.0000 C   0  0  0  0  0  0  0  0  0  0  0  0
    6.1591    3.2435    0.0000 C   0  0  0  0  0  0  0  0  0  0  0  0
    7.5294    2.6334    0.0000 C   0  0  0  0  0  0  0  0  0  0  0  0
    6.0023    4.7353    0.0000 C   0  0  0  0  0  0  0  0  0  0  0  0
    7.2158    5.6170    0.0000 O   0  0  0  0  0  0  0  0  0  0  0  0
    4.6320    5.3454    0.0000 N   0  0  0  0  0  0  0  0  0  0  0  0
  -12.2460   -1.6741    0.0000 N   0  0  0  0  0  0  0  0  0  0  0  0
  -12.9960   -2.9731    0.0000 C   0  0  0  0  0  0  0  0  0  0  0  0
  1  2  1  0
  2  3  2  0
  3  4  1  0
  4  5  2  0
  5  6  1  0
  6  7  2  0
  7  8  1  0
  8  9  2  0
  9 10  1  0
 10 11  1  0
 11 12  1  0
 12 13  1  0
 13 14  1  0
 14 15  1  0
 15 16  1  0
 16 17  1  0
 17 18  2  0
 18 19  1  0
 19 20  2  0
 20 21  1  0
 21 22  2  0
 22 23  1  0
 23 24  1  0
 24 25  2  0
 25 26  1  0
 26 27  2  0
 27 28  1  0
 28 29  1  0
 29 30  2  0
 30 31  1  0
 31 32  2  0
 32 33  1  0
 33 34  1  0
 34 35  2  0
 35 36  1  0
 36 37  2  0
 37 38  1  0
 38 39  2  0
 39 40  1  0
 40 41  2  0
 41 42  1  0
 42 43  2  0
 42 44  1  0
 44 45  1  0
 41 46  1  0
 46 47  1  0
 37 48  1  0
 48 49  2  0
 49 50  1  0
 50 51  2  0
 51 52  1  0
 52 53  2  0
 53 54  1  0
 54 55  1  0
 55 56  2  0
 56 57  1  0
 57 58  2  0
 58 59  1  0
 58 60  1  0
 60 61  2  0
 60 62  1  0
  5 63  1  0
 63 64  1  0
 64  2  1  0
 10  6  1  0
 16 11  1  0
 22 17  1  0
 28 23  1  0
 33 29  1  0
 49 34  1  0
 54 50  1  0
 62 55  1  0
 47 38  1  0
M  END
>  <Title>  (187) 
idAAHEgen8

$$$$

     RDKit          2D

 36 41  0  0  0  0  0  0  0  0999 V2000
    3.0000    0.0000    0.0000 C   0  0  0  0  0  0  0  0  0  0  0  0
    1.5000    0.0000    0.0000 C   0  0  0  0  0  0  0  0  0  0  0  0
    0.7500    1.2990    0.0000 C   0  0  0  0  0  0  0  0  0  0  0  0
   -0.7500    1.2990    0.0000 C   0  0  0  0  0  0  0  0  0  0  0  0
   -1.5000    0.0000    0.0000 C   0  0  0  0  0  0  0  0  0  0  0  0
   -3.0000    0.0000    0.0000 C   0  0  0  0  0  0  0  0  0  0  0  0
   -3.8817   -1.2135    0.0000 N   0  0  0  0  0  0  0  0  0  0  0  0
   -5.3083   -0.7500    0.0000 N   0  0  0  0  0  0  0  0  0  0  0  0
   -5.3083    0.7500    0.0000 N   0  0  0  0  0  0  0  0  0  0  0  0
   -3.8817    1.2135    0.0000 N   0  0  0  0  0  0  0  0  0  0  0  0
   -3.4182    2.6401    0.0000 C   0  0  0  0  0  0  0  0  0  0  0  0
   -4.2998    3.8536    0.0000 C   0  0  0  0  0  0  0  0  0  0  0  0
   -3.4182    5.0672    0.0000 C   0  0  0  0  0  0  0  0  0  0  0  0
   -1.9916    4.6036    0.0000 C   0  0  0  0  0  0  0  0  0  0  0  0
   -0.7780    5.4853    0.0000 C   0  0  0  0  0  0  0  0  0  0  0  0
    0.6485    5.0218    0.0000 N   0  0  0  0  0  0  0  0  0  0  0  0
    1.5302    6.2353    0.0000 N   0  0  0  0  0  0  0  0  0  0  0  0
    0.6485    7.4488    0.0000 N   0  0  0  0  0  0  0  0  0  0  0  0
   -0.7780    6.9853    0.0000 N   0  0  0  0  0  0  0  0  0  0  0  0
   -1.9916    7.8670    0.0000 C   0  0  0  0  0  0  0  0  0  0  0  0
   -3.3619    7.2569    0.0000 C   0  0  0  0  0  0  0  0  0  0  0  0
   -4.5754    8.1386    0.0000 C   0  0  0  0  0  0  0  0  0  0  0  0
   -4.4186    9.6303    0.0000 C   0  0  0  0  0  0  0  0  0  0  0  0
   -3.0483   10.2405    0.0000 C   0  0  0  0  0  0  0  0  0  0  0  0
   -1.8348    9.3588    0.0000 C   0  0  0  0  0  0  0  0  0  0  0  0
   -0.4645    9.9689    0.0000 C   0  0  0  0  0  0  0  0  0  0  0  0
   -0.3077   11.4607    0.0000 C   0  0  0  0  0  0  0  0  0  0  0  0
    1.0627   12.0708    0.0000 C   0  0  0  0  0  0  0  0  0  0  0  0
    2.2762   11.1891    0.0000 C   0  0  0  0  0  0  0  0  0  0  0  0
    2.1194    9.6973    0.0000 C   0  0  0  0  0  0  0  0  0  0  0  0
    0.7491    9.0872    0.0000 C   0  0  0  0  0  0  0  0  0  0  0  0
   -1.9916    3.1036    0.0000 C   0  0  0  0  0  0  0  0  0  0  0  0
   -0.7780    2.2220    0.0000 O   0  0  0  0  0  0  0  0  0  0  0  0
   -0.7500   -1.2990    0.0000 C   0  0  0  0  0  0  0  0  0  0  0  0
   -1.5000   -2.5981    0.0000 O   0  0  0  0  0  0  0  0  0  0  0  0
    0.7500   -1.2990    0.0000 N   0  0  0  0  0  0  0  0  0  0  0  0
  1  2  1  0
  2  3  2  0
  3  4  1  0
  4  5  2  0
  5  6  1  0
  6  7  2  0
  7  8  1  0
  8  9  2  0
  9 10  1  0
 10 11  1  0
 11 12  2  0
 12 13  1  0
 13 14  2  0
 14 15  1  0
 15 16  2  0
 16 17  1  0
 17 18  2  0
 18 19  1  0
 19 20  1  0
 20 21  2  0
 21 22  1  0
 22 23  2  0
 23 24  1  0
 24 25  2  0
 25 26  1  0
 26 27  2  0
 27 28  1  0
 28 29  2  0
 29 30  1  0
 30 31  2  0
 14 32  1  0
 32 33  2  0
  5 34  1  0
 34 35  2  0
 34 36  1  0
 36  2  1  0
 10  6  1  0
 32 11  1  0
 19 15  1  0
 25 20  1  0
 31 26  1  0
M  END
>  <Title>  (188) 
idAAHFgen8

$$$$

     RDKit          2D

 28 31  0  0  0  0  0  0  0  0999 V2000
    3.0000    0.0000    0.0000 C   0  0  0  0  0  0  0  0  0  0  0  0
    1.5000    0.0000    0.0000 C   0  0  0  0  0  0  0  0  0  0  0  0
    0.7500   -1.2990    0.0000 C   0  0  0  0  0  0  0  0  0  0  0  0
   -0.7500   -1.2990    0.0000 C   0  0  0  0  0  0  0  0  0  0  0  0
   -1.5000    0.0000    0.0000 C   0  0  0  0  0  0  0  0  0  0  0  0
   -3.0000    0.0000    0.0000 C   0  0  0  0  0  0  0  0  0  0  0  0
   -3.8817   -1.2135    0.0000 N   0  0  0  0  0  0  0  0  0  0  0  0
   -5.3083   -0.7500    0.0000 N   0  0  0  0  0  0  0  0  0  0  0  0
   -5.3083    0.7500    0.0000 N   0  0  0  0  0  0  0  0  0  0  0  0
   -3.8817    1.2135    0.0000 N   0  0  0  0  0  0  0  0  0  0  0  0
   -3.4182    2.6401    0.0000 C   0  0  0  0  0  0  0  0  0  0  0  0
   -1.9509    2.9520    0.0000 C   0  0  0  0  0  0  0  0  0  0  0  0
   -1.4874    4.3786    0.0000 C   0  0  0  0  0  0  0  0  0  0  0  0
   -2.4911    5.4933    0.0000 C   0  0  0  0  0  0  0  0  0  0  0  0
   -3.9583    5.1814    0.0000 C   0  0  0  0  0  0  0  0  0  0  0  0
   -4.4218    3.7548    0.0000 C   0  0  0  0  0  0  0  0  0  0  0  0
   -5.8891    3.4430    0.0000 C   0  0  0  0  0  0  0  0  0  0  0  0
   -6.8928    4.5577    0.0000 C   0  0  0  0  0  0  0  0  0  0  0  0
   -8.3600    4.2458    0.0000 C   0  0  0  0  0  0  0  0  0  0  0  0
   -8.8235    2.8192    0.0000 C   0  0  0  0  0  0  0  0  0  0  0  0
  -10.2907    2.5074    0.0000 C   0  0  0  0  0  0  0  0  0  0  0  0
  -10.7543    1.0808    0.0000 O   0  0  0  0  0  0  0  0  0  0  0  0
  -11.2944    3.6221    0.0000 N   0  0  0  0  0  0  0  0  0  0  0  0
  -12.7617    3.3102    0.0000 O   0  0  0  0  0  0  0  0  0  0  0  0
   -7.8198    1.7045    0.0000 C   0  0  0  0  0  0  0  0  0  0  0  0
   -6.3526    2.0164    0.0000 C   0  0  0  0  0  0  0  0  0  0  0  0
   -0.7500    1.2990    0.0000 N   0  0  0  0  0  0  0  0  0  0  0  0
    0.7500    1.2990    0.0000 C   0  0  0  0  0  0  0  0  0  0  0  0
  1  2  1  0
  2  3  2  0
  3  4  1  0
  4  5  2  0
  5  6  1  0
  6  7  2  0
  7  8  1  0
  8  9  2  0
  9 10  1  0
 10 11  1  0
 11 12  1  0
 12 13  1  0
 13 14  1  0
 14 15  1  0
 15 16  1  0
 16 17  1  0
 17 18  2  0
 18 19  1  0
 19 20  2  0
 20 21  1  0
 21 22  2  0
 21 23  1  0
 23 24  1  0
 20 25  1  0
 25 26  1  0
  5 27  1  0
 27 28  1  0
 28  2  1  0
 10  6  1  0
 16 11  1  0
 26 17  1  0
M  END
>  <Title>  (189) 
idAAHGgen8

$$$$

     RDKit          2D

 41 47  0  0  0  0  0  0  0  0999 V2000
    3.0000    0.0000    0.0000 C   0  0  0  0  0  0  0  0  0  0  0  0
    1.5000    0.0000    0.0000 C   0  0  0  0  0  0  0  0  0  0  0  0
    0.7500   -1.2990    0.0000 C   0  0  0  0  0  0  0  0  0  0  0  0
   -0.7500   -1.2990    0.0000 C   0  0  0  0  0  0  0  0  0  0  0  0
   -1.5000    0.0000    0.0000 C   0  0  0  0  0  0  0  0  0  0  0  0
   -3.0000    0.0000    0.0000 C   0  0  0  0  0  0  0  0  0  0  0  0
   -3.8817   -1.2135    0.0000 N   0  0  0  0  0  0  0  0  0  0  0  0
   -5.3083   -0.7500    0.0000 N   0  0  0  0  0  0  0  0  0  0  0  0
   -5.3083    0.7500    0.0000 N   0  0  0  0  0  0  0  0  0  0  0  0
   -3.8817    1.2135    0.0000 N   0  0  0  0  0  0  0  0  0  0  0  0
   -3.4182    2.6401    0.0000 C   0  0  0  0  0  0  0  0  0  0  0  0
   -1.9509    2.9520    0.0000 C   0  0  0  0  0  0  0  0  0  0  0  0
   -1.4874    4.3786    0.0000 C   0  0  0  0  0  0  0  0  0  0  0  0
   -2.4911    5.4933    0.0000 C   0  0  0  0  0  0  0  0  0  0  0  0
   -2.0276    6.9199    0.0000 C   0  0  0  0  0  0  0  0  0  0  0  0
   -2.9093    8.1334    0.0000 N   0  0  0  0  0  0  0  0  0  0  0  0
   -2.0276    9.3469    0.0000 N   0  0  0  0  0  0  0  0  0  0  0  0
   -0.6010    8.8834    0.0000 N   0  0  0  0  0  0  0  0  0  0  0  0
   -0.6010    7.3834    0.0000 N   0  0  0  0  0  0  0  0  0  0  0  0
    0.6125    6.5017    0.0000 C   0  0  0  0  0  0  0  0  0  0  0  0
    0.4557    5.0099    0.0000 C   0  0  0  0  0  0  0  0  0  0  0  0
    1.6693    4.1283    0.0000 C   0  0  0  0  0  0  0  0  0  0  0  0
    3.0396    4.7384    0.0000 C   0  0  0  0  0  0  0  0  0  0  0  0
    4.2531    3.8567    0.0000 C   0  0  0  0  0  0  0  0  0  0  0  0
    4.0963    2.3649    0.0000 C   0  0  0  0  0  0  0  0  0  0  0  0
    5.3098    1.4832    0.0000 C   0  0  0  0  0  0  0  0  0  0  0  0
    6.6802    2.0933    0.0000 C   0  0  0  0  0  0  0  0  0  0  0  0
    6.8370    3.5851    0.0000 C   0  0  0  0  0  0  0  0  0  0  0  0
    5.6234    4.4668    0.0000 C   0  0  0  0  0  0  0  0  0  0  0  0
    3.1964    6.2301    0.0000 C   0  0  0  0  0  0  0  0  0  0  0  0
    1.9829    7.1118    0.0000 C   0  0  0  0  0  0  0  0  0  0  0  0
    2.1396    8.6036    0.0000 C   0  0  0  0  0  0  0  0  0  0  0  0
    3.5100    9.2137    0.0000 C   0  0  0  0  0  0  0  0  0  0  0  0
    3.6668   10.7055    0.0000 C   0  0  0  0  0  0  0  0  0  0  0  0
    2.4532   11.5872    0.0000 C   0  0  0  0  0  0  0  0  0  0  0  0
    1.0829   10.9771    0.0000 C   0  0  0  0  0  0  0  0  0  0  0  0
    0.9261    9.4853    0.0000 C   0  0  0  0  0  0  0  0  0  0  0  0
   -3.9583    5.1814    0.0000 C   0  0  0  0  0  0  0  0  0  0  0  0
   -4.4218    3.7548    0.0000 C   0  0  0  0  0  0  0  0  0  0  0  0
   -0.7500    1.2990    0.0000 C   0  0  0  0  0  0  0  0  0  0  0  0
    0.7500    1.2990    0.0000 C   0  0  0  0  0  0  0  0  0  0  0  0
  1  2  1  0
  2  3  2  0
  3  4  1  0
  4  5  2  0
  5  6  1  0
  6  7  2  0
  7  8  1  0
  8  9  2  0
  9 10  1  0
 10 11  1  0
 11 12  2  0
 12 13  1  0
 13 14  2  0
 14 15  1  0
 15 16  2  0
 16 17  1  0
 17 18  2  0
 18 19  1  0
 19 20  1  0
 20 21  2  0
 21 22  1  0
 22 23  2  0
 23 24  1  0
 24 25  2  0
 25 26  1  0
 26 27  2  0
 27 28  1  0
 28 29  2  0
 23 30  1  0
 30 31  2  0
 31 32  1  0
 32 33  2  0
 33 34  1  0
 34 35  2  0
 35 36  1  0
 36 37  2  0
 14 38  1  0
 38 39  2  0
  5 40  1  0
 40 41  2  0
 41  2  1  0
 10  6  1  0
 39 11  1  0
 19 15  1  0
 31 20  1  0
 37 32  1  0
 29 24  1  0
M  END
>  <Title>  (190) 
idAAHHgen8

$$$$

     RDKit          2D

 12 12  0  0  0  0  0  0  0  0999 V2000
    3.9271    0.0000    0.0000 C   0  0  0  0  0  0  0  0  0  0  0  0
    2.4271    0.0000    0.0000 C   0  0  0  0  0  0  0  0  0  0  0  0
    1.9635   -1.4266    0.0000 C   0  0  0  0  0  0  0  0  0  0  0  0
    0.7500   -2.3083    0.0000 C   0  0  0  0  0  0  0  0  0  0  0  0
   -0.7500   -2.3083    0.0000 N   0  0  0  0  0  0  0  0  0  0  0  0
   -1.9635   -1.4266    0.0000 N   0  0  0  0  0  0  0  0  0  0  0  0
   -2.4271    0.0000    0.0000 N   0  0  0  0  0  0  0  0  0  0  0  0
   -1.9635    1.4266    0.0000 N   0  0  0  0  0  0  0  0  0  0  0  0
   -0.7500    2.3083    0.0000 C   0  0  0  0  0  0  0  0  0  0  0  0
   -1.2135    3.7348    0.0000 F   0  0  0  0  0  0  0  0  0  0  0  0
    0.7500    2.3083    0.0000 C   0  0  0  0  0  0  0  0  0  0  0  0
    1.9635    1.4266    0.0000 C   0  0  0  0  0  0  0  0  0  0  0  0
  1  2  1  0
  2  3  2  0
  3  4  1  0
  4  5  2  0
  5  6  1  0
  6  7  2  0
  7  8  1  0
  8  9  2  0
  9 10  1  0
  9 11  1  0
 11 12  2  0
 12  2  1  0
M  END
>  <Title>  (191) 
idAAHIgen8

$$$$

     RDKit          2D

 47 53  0  0  0  0  0  0  0  0999 V2000
  -14.9962    5.8473    0.0000 C   0  0  0  0  0  0  0  0  0  0  0  0
  -13.7827    4.9656    0.0000 C   0  0  0  0  0  0  0  0  0  0  0  0
  -13.9395    3.4739    0.0000 C   0  0  0  0  0  0  0  0  0  0  0  0
  -12.7260    2.5922    0.0000 C   0  0  0  0  0  0  0  0  0  0  0  0
  -11.3556    3.2023    0.0000 C   0  0  0  0  0  0  0  0  0  0  0  0
  -10.1421    2.3206    0.0000 C   0  0  0  0  0  0  0  0  0  0  0  0
  -10.2989    0.8288    0.0000 O   0  0  0  0  0  0  0  0  0  0  0  0
   -8.7718    2.9307    0.0000 N   0  0  0  0  0  0  0  0  0  0  0  0
   -7.5583    2.0490    0.0000 C   0  0  0  0  0  0  0  0  0  0  0  0
   -7.5583    0.5490    0.0000 N   0  0  0  0  0  0  0  0  0  0  0  0
   -6.1317    0.0855    0.0000 N   0  0  0  0  0  0  0  0  0  0  0  0
   -5.2500    1.2990    0.0000 N   0  0  0  0  0  0  0  0  0  0  0  0
   -6.1317    2.5126    0.0000 N   0  0  0  0  0  0  0  0  0  0  0  0
   -5.6682    3.9391    0.0000 C   0  0  0  0  0  0  0  0  0  0  0  0
   -6.5498    5.1527    0.0000 N   0  0  0  0  0  0  0  0  0  0  0  0
   -5.6682    6.3662    0.0000 N   0  0  0  0  0  0  0  0  0  0  0  0
   -4.2416    5.9027    0.0000 N   0  0  0  0  0  0  0  0  0  0  0  0
   -4.2416    4.4027    0.0000 N   0  0  0  0  0  0  0  0  0  0  0  0
   -3.0280    3.5210    0.0000 C   0  0  0  0  0  0  0  0  0  0  0  0
   -3.1848    2.0292    0.0000 C   0  0  0  0  0  0  0  0  0  0  0  0
   -1.9713    1.1475    0.0000 C   0  0  0  0  0  0  0  0  0  0  0  0
   -0.6010    1.7576    0.0000 C   0  0  0  0  0  0  0  0  0  0  0  0
    0.6125    0.8760    0.0000 C   0  0  0  0  0  0  0  0  0  0  0  0
    0.6125   -0.6240    0.0000 N   0  0  0  0  0  0  0  0  0  0  0  0
    2.0391   -1.0876    0.0000 N   0  0  0  0  0  0  0  0  0  0  0  0
    2.9208    0.1260    0.0000 N   0  0  0  0  0  0  0  0  0  0  0  0
    2.0391    1.3395    0.0000 N   0  0  0  0  0  0  0  0  0  0  0  0
    2.5026    2.7661    0.0000 C   0  0  0  0  0  0  0  0  0  0  0  0
    1.4989    3.8808    0.0000 C   0  0  0  0  0  0  0  0  0  0  0  0
    1.9625    5.3074    0.0000 C   0  0  0  0  0  0  0  0  0  0  0  0
    3.4297    5.6192    0.0000 C   0  0  0  0  0  0  0  0  0  0  0  0
    4.4334    4.5045    0.0000 C   0  0  0  0  0  0  0  0  0  0  0  0
    3.9699    3.0779    0.0000 C   0  0  0  0  0  0  0  0  0  0  0  0
   -0.4442    3.2494    0.0000 C   0  0  0  0  0  0  0  0  0  0  0  0
   -1.6577    4.1311    0.0000 C   0  0  0  0  0  0  0  0  0  0  0  0
   -1.5009    5.6229    0.0000 C   0  0  0  0  0  0  0  0  0  0  0  0
   -0.1306    6.2330    0.0000 C   0  0  0  0  0  0  0  0  0  0  0  0
    0.0262    7.7248    0.0000 C   0  0  0  0  0  0  0  0  0  0  0  0
   -1.1873    8.6064    0.0000 C   0  0  0  0  0  0  0  0  0  0  0  0
   -1.0306   10.0982    0.0000 C   0  0  0  0  0  0  0  0  0  0  0  0
   -2.2441   10.9799    0.0000 O   0  0  0  0  0  0  0  0  0  0  0  0
    0.3398   10.7083    0.0000 N   0  0  0  0  0  0  0  0  0  0  0  0
    0.4966   12.2001    0.0000 O   0  0  0  0  0  0  0  0  0  0  0  0
   -2.5577    7.9963    0.0000 C   0  0  0  0  0  0  0  0  0  0  0  0
   -2.7145    6.5046    0.0000 C   0  0  0  0  0  0  0  0  0  0  0  0
  -11.1988    4.6941    0.0000 C   0  0  0  0  0  0  0  0  0  0  0  0
  -12.4124    5.5757    0.0000 C   0  0  0  0  0  0  0  0  0  0  0  0
  1  2  1  0
  2  3  2  0
  3  4  1  0
  4  5  2  0
  5  6  1  0
  6  7  2  0
  6  8  1  0
  8  9  1  0
  9 10  2  0
 10 11  1  0
 11 12  2  0
 12 13  1  0
 13 14  1  0
 14 15  2  0
 15 16  1  0
 16 17  2  0
 17 18  1  0
 18 19  1  0
 19 20  2  0
 20 21  1  0
 21 22  2  0
 22 23  1  0
 23 24  2  0
 24 25  1  0
 25 26  2  0
 26 27  1  0
 27 28  1  0
 28 29  2  0
 29 30  1  0
 30 31  2  0
 31 32  1  0
 32 33  2  0
 22 34  1  0
 34 35  2  0
 35 36  1  0
 36 37  2  0
 37 38  1  0
 38 39  2  0
 39 40  1  0
 40 41  2  0
 40 42  1  0
 42 43  1  0
 39 44  1  0
 44 45  1  0
  5 46  1  0
 46 47  2  0
 47  2  1  0
 13  9  1  0
 18 14  1  0
 35 19  1  0
 45 36  1  0
 27 23  1  0
 33 28  1  0
M  END
>  <Title>  (192) 
idAAHJgen8

$$$$

     RDKit          2D

 20 20  0  0  0  0  0  0  0  0999 V2000
    6.0944   -1.2990    0.0000 C   0  0  0  0  0  0  0  0  0  0  0  0
    5.3444    0.0000    0.0000 O   0  0  0  0  0  0  0  0  0  0  0  0
    3.8444    0.0000    0.0000 C   0  0  0  0  0  0  0  0  0  0  0  0
    3.5517   -1.4712    0.0000 C   0  0  0  0  0  0  0  0  0  0  0  0
    2.7184   -2.7184    0.0000 C   0  0  0  0  0  0  0  0  0  0  0  0
    1.4712   -3.5517    0.0000 C   0  0  0  0  0  0  0  0  0  0  0  0
   -0.0000   -3.8444    0.0000 C   0  0  0  0  0  0  0  0  0  0  0  0
   -1.4712   -3.5517    0.0000 C   0  0  0  0  0  0  0  0  0  0  0  0
   -2.7184   -2.7184    0.0000 C   0  0  0  0  0  0  0  0  0  0  0  0
   -3.5517   -1.4712    0.0000 C   0  0  0  0  0  0  0  0  0  0  0  0
   -3.8444    0.0000    0.0000 C   0  0  0  0  0  0  0  0  0  0  0  0
   -3.5517    1.4712    0.0000 C   0  0  0  0  0  0  0  0  0  0  0  0
   -2.7184    2.7184    0.0000 C   0  0  0  0  0  0  0  0  0  0  0  0
   -1.4712    3.5517    0.0000 C   0  0  0  0  0  0  0  0  0  0  0  0
   -2.0452    4.9376    0.0000 F   0  0  0  0  0  0  0  0  0  0  0  0
    0.0000    3.8444    0.0000 C   0  0  0  0  0  0  0  0  0  0  0  0
    0.0000    5.3444    0.0000 C   0  0  0  0  0  0  0  0  0  0  0  0
    1.4712    3.5517    0.0000 C   0  0  0  0  0  0  0  0  0  0  0  0
    2.7184    2.7184    0.0000 C   0  0  0  0  0  0  0  0  0  0  0  0
    3.5517    1.4712    0.0000 C   0  0  0  0  0  0  0  0  0  0  0  0
  1  2  1  0
  2  3  1  0
  3  4  2  0
  4  5  1  0
  5  6  2  0
  6  7  1  0
  7  8  2  0
  8  9  1  0
  9 10  2  0
 10 11  1  0
 11 12  2  0
 12 13  1  0
 13 14  2  0
 14 15  1  0
 14 16  1  0
 16 17  1  0
 16 18  2  0
 18 19  1  0
 19 20  2  0
 20  3  1  0
M  END
>  <Title>  (193) 
idAAHKgen8

$$$$

     RDKit          2D

 26 28  0  0  0  0  0  0  0  0999 V2000
    4.2098   -1.2990    0.0000 C   0  0  0  0  0  0  0  0  0  0  0  0
    3.4598   -0.0000    0.0000 O   0  0  0  0  0  0  0  0  0  0  0  0
    1.9598    0.0000    0.0000 C   0  0  0  0  0  0  0  0  0  0  0  0
    1.3858   -1.3858    0.0000 C   0  0  0  0  0  0  0  0  0  0  0  0
   -0.0000   -1.9598    0.0000 C   0  0  0  0  0  0  0  0  0  0  0  0
   -1.3858   -1.3858    0.0000 C   0  0  0  0  0  0  0  0  0  0  0  0
   -1.9598    0.0000    0.0000 C   0  0  0  0  0  0  0  0  0  0  0  0
   -1.3858    1.3858    0.0000 C   0  0  0  0  0  0  0  0  0  0  0  0
   -2.4465    2.4465    0.0000 C   0  0  0  0  0  0  0  0  0  0  0  0
   -3.9280    2.2118    0.0000 C   0  0  0  0  0  0  0  0  0  0  0  0
   -4.6090    3.5483    0.0000 N   0  0  0  0  0  0  0  0  0  0  0  0
   -3.5483    4.6090    0.0000 N   0  0  0  0  0  0  0  0  0  0  0  0
   -2.2118    3.9280    0.0000 N   0  0  0  0  0  0  0  0  0  0  0  0
   -0.8753    4.6090    0.0000 C   0  0  0  0  0  0  0  0  0  0  0  0
    0.5513    4.1455    0.0000 N   0  0  0  0  0  0  0  0  0  0  0  0
    1.0148    5.5721    0.0000 C   0  0  0  0  0  0  0  0  0  0  0  0
    2.3513    6.2530    0.0000 C   0  0  0  0  0  0  0  0  0  0  0  0
    3.6093    5.4361    0.0000 O   0  0  0  0  0  0  0  0  0  0  0  0
    4.9458    6.1171    0.0000 C   0  0  0  0  0  0  0  0  0  0  0  0
    6.2038    5.3001    0.0000 N   0  0  0  0  0  0  0  0  0  0  0  0
    5.0243    7.6150    0.0000 O   0  0  0  0  0  0  0  0  0  0  0  0
   -0.4118    6.0356    0.0000 C   0  0  0  0  0  0  0  0  0  0  0  0
   -1.0928    7.3721    0.0000 O   0  0  0  0  0  0  0  0  0  0  0  0
    0.0000    1.9598    0.0000 N   0  0  0  0  0  0  0  0  0  0  0  0
    1.3858    1.3858    0.0000 C   0  0  0  0  0  0  0  0  0  0  0  0
    2.4465    2.4465    0.0000 O   0  0  0  0  0  0  0  0  0  0  0  0
  1  2  1  0
  2  3  1  0
  3  4  2  0
  4  5  1  0
  5  6  2  0
  6  7  1  0
  7  8  2  0
  8  9  1  0
  9 10  2  0
 10 11  1  0
 11 12  2  0
 12 13  1  0
 13 14  1  0
 14 15  1  0
 15 16  1  0
 16 17  1  0
 17 18  1  0
 18 19  1  0
 19 20  1  0
 19 21  2  0
 16 22  1  0
 22 23  2  0
  8 24  1  0
 24 25  1  0
 25 26  2  0
 25  3  1  0
 13  9  1  0
 22 14  1  0
M  END
>  <Title>  (194) 
idAAHLgen8

$$$$

     RDKit          2D

 45 51  0  0  0  0  0  0  0  0999 V2000
    3.0000    0.0000    0.0000 C   0  0  0  0  0  0  0  0  0  0  0  0
    1.5000    0.0000    0.0000 C   0  0  0  0  0  0  0  0  0  0  0  0
    0.7500   -1.2990    0.0000 C   0  0  0  0  0  0  0  0  0  0  0  0
   -0.7500   -1.2990    0.0000 C   0  0  0  0  0  0  0  0  0  0  0  0
   -1.5000    0.0000    0.0000 C   0  0  0  0  0  0  0  0  0  0  0  0
   -3.0000    0.0000    0.0000 C   0  0  0  0  0  0  0  0  0  0  0  0
   -3.8817   -1.2135    0.0000 N   0  0  0  0  0  0  0  0  0  0  0  0
   -5.3083   -0.7500    0.0000 N   0  0  0  0  0  0  0  0  0  0  0  0
   -5.3083    0.7500    0.0000 N   0  0  0  0  0  0  0  0  0  0  0  0
   -3.8817    1.2135    0.0000 N   0  0  0  0  0  0  0  0  0  0  0  0
   -3.4182    2.6401    0.0000 C   0  0  0  0  0  0  0  0  0  0  0  0
   -1.9509    2.9520    0.0000 C   0  0  0  0  0  0  0  0  0  0  0  0
   -1.4874    4.3786    0.0000 C   0  0  0  0  0  0  0  0  0  0  0  0
   -2.4911    5.4933    0.0000 C   0  0  0  0  0  0  0  0  0  0  0  0
   -2.0276    6.9199    0.0000 C   0  0  0  0  0  0  0  0  0  0  0  0
   -0.5604    7.2317    0.0000 C   0  0  0  0  0  0  0  0  0  0  0  0
   -0.0968    8.6583    0.0000 C   0  0  0  0  0  0  0  0  0  0  0  0
   -1.1005    9.7730    0.0000 C   0  0  0  0  0  0  0  0  0  0  0  0
   -2.5677    9.4612    0.0000 C   0  0  0  0  0  0  0  0  0  0  0  0
   -3.0313    8.0346    0.0000 C   0  0  0  0  0  0  0  0  0  0  0  0
   -4.4985    7.7227    0.0000 C   0  0  0  0  0  0  0  0  0  0  0  0
   -4.9620    6.2961    0.0000 C   0  0  0  0  0  0  0  0  0  0  0  0
   -6.4292    5.9843    0.0000 C   0  0  0  0  0  0  0  0  0  0  0  0
   -7.4329    7.0990    0.0000 C   0  0  0  0  0  0  0  0  0  0  0  0
   -6.9694    8.5256    0.0000 N   0  0  0  0  0  0  0  0  0  0  0  0
   -5.5022    8.8374    0.0000 C   0  0  0  0  0  0  0  0  0  0  0  0
   -5.0387   10.2640    0.0000 C   0  0  0  0  0  0  0  0  0  0  0  0
   -3.5714   10.5759    0.0000 C   0  0  0  0  0  0  0  0  0  0  0  0
   -3.1079   12.0025    0.0000 C   0  0  0  0  0  0  0  0  0  0  0  0
   -4.1116   13.1172    0.0000 C   0  0  0  0  0  0  0  0  0  0  0  0
   -5.5788   12.8053    0.0000 C   0  0  0  0  0  0  0  0  0  0  0  0
   -6.0424   11.3787    0.0000 C   0  0  0  0  0  0  0  0  0  0  0  0
   -7.5096   11.0669    0.0000 N   0  0  0  0  0  0  0  0  0  0  0  0
   -8.1197    9.6965    0.0000 C   0  0  0  0  0  0  0  0  0  0  0  0
   -9.6115    9.8533    0.0000 C   0  0  0  0  0  0  0  0  0  0  0  0
  -10.6152    8.7386    0.0000 C   0  0  0  0  0  0  0  0  0  0  0  0
  -10.1516    7.3120    0.0000 O   0  0  0  0  0  0  0  0  0  0  0  0
  -12.0824    9.0505    0.0000 N   0  0  0  0  0  0  0  0  0  0  0  0
  -13.0861    7.9358    0.0000 O   0  0  0  0  0  0  0  0  0  0  0  0
   -9.9233   11.3206    0.0000 C   0  0  0  0  0  0  0  0  0  0  0  0
   -8.6243   12.0706    0.0000 C   0  0  0  0  0  0  0  0  0  0  0  0
   -3.9583    5.1814    0.0000 C   0  0  0  0  0  0  0  0  0  0  0  0
   -4.4218    3.7548    0.0000 C   0  0  0  0  0  0  0  0  0  0  0  0
   -0.7500    1.2990    0.0000 C   0  0  0  0  0  0  0  0  0  0  0  0
    0.7500    1.2990    0.0000 C   0  0  0  0  0  0  0  0  0  0  0  0
  1  2  1  0
  2  3  2  0
  3  4  1  0
  4  5  2  0
  5  6  1  0
  6  7  2  0
  7  8  1  0
  8  9  2  0
  9 10  1  0
 10 11  1  0
 11 12  2  0
 12 13  1  0
 13 14  2  0
 14 15  1  0
 15 16  2  0
 16 17  1  0
 17 18  2  0
 18 19  1  0
 19 20  2  0
 20 21  1  0
 21 22  2  0
 22 23  1  0
 23 24  2  0
 24 25  1  0
 25 26  2  0
 26 27  1  0
 27 28  2  0
 28 29  1  0
 29 30  2  0
 30 31  1  0
 31 32  2  0
 32 33  1  0
 33 34  1  0
 34 35  2  0
 35 36  1  0
 36 37  2  0
 36 38  1  0
 38 39  1  0
 35 40  1  0
 40 41  1  0
 14 42  1  0
 42 43  2  0
  5 44  1  0
 44 45  2  0
 45  2  1  0
 10  6  1  0
 43 11  1  0
 20 15  1  0
 26 21  1  0
 32 27  1  0
 41 33  1  0
M  END
>  <Title>  (195) 
idAAHMgen8

$$$$

     RDKit          2D

 35 40  0  0  0  0  0  0  0  0999 V2000
    3.0000    0.0000    0.0000 C   0  0  0  0  0  0  0  0  0  0  0  0
    1.5000    0.0000    0.0000 C   0  0  0  0  0  0  0  0  0  0  0  0
    0.7500   -1.2990    0.0000 C   0  0  0  0  0  0  0  0  0  0  0  0
   -0.7500   -1.2990    0.0000 C   0  0  0  0  0  0  0  0  0  0  0  0
   -1.5000    0.0000    0.0000 C   0  0  0  0  0  0  0  0  0  0  0  0
   -3.0000    0.0000    0.0000 C   0  0  0  0  0  0  0  0  0  0  0  0
   -3.8817   -1.2135    0.0000 N   0  0  0  0  0  0  0  0  0  0  0  0
   -5.3083   -0.7500    0.0000 N   0  0  0  0  0  0  0  0  0  0  0  0
   -5.3083    0.7500    0.0000 N   0  0  0  0  0  0  0  0  0  0  0  0
   -3.8817    1.2135    0.0000 N   0  0  0  0  0  0  0  0  0  0  0  0
   -3.4182    2.6401    0.0000 C   0  0  0  0  0  0  0  0  0  0  0  0
   -1.9509    2.9520    0.0000 C   0  0  0  0  0  0  0  0  0  0  0  0
   -1.4874    4.3786    0.0000 C   0  0  0  0  0  0  0  0  0  0  0  0
   -2.4911    5.4933    0.0000 C   0  0  0  0  0  0  0  0  0  0  0  0
   -2.0276    6.9199    0.0000 C   0  0  0  0  0  0  0  0  0  0  0  0
   -2.9093    8.1334    0.0000 C   0  0  0  0  0  0  0  0  0  0  0  0
   -2.0276    9.3469    0.0000 N   0  0  0  0  0  0  0  0  0  0  0  0
   -0.6010    8.8834    0.0000 N   0  0  0  0  0  0  0  0  0  0  0  0
   -0.6010    7.3834    0.0000 N   0  0  0  0  0  0  0  0  0  0  0  0
    0.6125    6.5017    0.0000 C   0  0  0  0  0  0  0  0  0  0  0  0
    0.4557    5.0099    0.0000 C   0  0  0  0  0  0  0  0  0  0  0  0
    1.6693    4.1283    0.0000 C   0  0  0  0  0  0  0  0  0  0  0  0
    3.0396    4.7384    0.0000 C   0  0  0  0  0  0  0  0  0  0  0  0
    3.1964    6.2301    0.0000 C   0  0  0  0  0  0  0  0  0  0  0  0
    1.9829    7.1118    0.0000 C   0  0  0  0  0  0  0  0  0  0  0  0
    2.1396    8.6036    0.0000 C   0  0  0  0  0  0  0  0  0  0  0  0
    3.5100    9.2137    0.0000 C   0  0  0  0  0  0  0  0  0  0  0  0
    3.6668   10.7055    0.0000 C   0  0  0  0  0  0  0  0  0  0  0  0
    2.4532   11.5872    0.0000 C   0  0  0  0  0  0  0  0  0  0  0  0
    1.0829   10.9771    0.0000 C   0  0  0  0  0  0  0  0  0  0  0  0
    0.9261    9.4853    0.0000 C   0  0  0  0  0  0  0  0  0  0  0  0
   -3.9583    5.1814    0.0000 C   0  0  0  0  0  0  0  0  0  0  0  0
   -4.4218    3.7548    0.0000 C   0  0  0  0  0  0  0  0  0  0  0  0
   -0.7500    1.2990    0.0000 C   0  0  0  0  0  0  0  0  0  0  0  0
    0.7500    1.2990    0.0000 C   0  0  0  0  0  0  0  0  0  0  0  0
  1  2  1  0
  2  3  2  0
  3  4  1  0
  4  5  2  0
  5  6  1  0
  6  7  2  0
  7  8  1  0
  8  9  2  0
  9 10  1  0
 10 11  1  0
 11 12  2  0
 12 13  1  0
 13 14  2  0
 14 15  1  0
 15 16  2  0
 16 17  1  0
 17 18  2  0
 18 19  1  0
 19 20  1  0
 20 21  2  0
 21 22  1  0
 22 23  2  0
 23 24  1  0
 24 25  2  0
 25 26  1  0
 26 27  2  0
 27 28  1  0
 28 29  2  0
 29 30  1  0
 30 31  2  0
 14 32  1  0
 32 33  2  0
  5 34  1  0
 34 35  2  0
 35  2  1  0
 10  6  1  0
 33 11  1  0
 19 15  1  0
 25 20  1  0
 31 26  1  0
M  END
>  <Title>  (196) 
idAAHNgen8

$$$$

     RDKit          2D

 47 53  0  0  0  0  0  0  0  0999 V2000
    4.6740   -4.8322    0.0000 C   0  0  0  0  0  0  0  0  0  0  0  0
    3.3037   -4.2221    0.0000 C   0  0  0  0  0  0  0  0  0  0  0  0
    2.0046   -4.9721    0.0000 C   0  0  0  0  0  0  0  0  0  0  0  0
    0.8899   -3.9684    0.0000 C   0  0  0  0  0  0  0  0  0  0  0  0
    1.5000   -2.5981    0.0000 C   0  0  0  0  0  0  0  0  0  0  0  0
    0.7500   -1.2990    0.0000 C   0  0  0  0  0  0  0  0  0  0  0  0
    1.5000    0.0000    0.0000 C   0  0  0  0  0  0  0  0  0  0  0  0
    0.7500    1.2990    0.0000 C   0  0  0  0  0  0  0  0  0  0  0  0
    1.5000    2.5981    0.0000 N   0  0  0  0  0  0  0  0  0  0  0  0
    3.0000    2.5981    0.0000 C   0  0  0  0  0  0  0  0  0  0  0  0
    3.8817    1.3846    0.0000 N   0  0  0  0  0  0  0  0  0  0  0  0
    5.3083    1.8481    0.0000 N   0  0  0  0  0  0  0  0  0  0  0  0
    5.3083    3.3481    0.0000 N   0  0  0  0  0  0  0  0  0  0  0  0
    3.8817    3.8116    0.0000 N   0  0  0  0  0  0  0  0  0  0  0  0
    3.4182    5.2382    0.0000 C   0  0  0  0  0  0  0  0  0  0  0  0
    1.9509    5.5501    0.0000 C   0  0  0  0  0  0  0  0  0  0  0  0
    1.4874    6.9766    0.0000 C   0  0  0  0  0  0  0  0  0  0  0  0
    2.4911    8.0914    0.0000 N   0  0  0  0  0  0  0  0  0  0  0  0
    3.9583    7.7795    0.0000 N   0  0  0  0  0  0  0  0  0  0  0  0
    4.4218    6.3529    0.0000 C   0  0  0  0  0  0  0  0  0  0  0  0
    5.8891    6.0410    0.0000 C   0  0  0  0  0  0  0  0  0  0  0  0
    6.8928    7.1558    0.0000 C   0  0  0  0  0  0  0  0  0  0  0  0
    8.3600    6.8439    0.0000 C   0  0  0  0  0  0  0  0  0  0  0  0
    8.8235    5.4173    0.0000 C   0  0  0  0  0  0  0  0  0  0  0  0
    7.8198    4.3026    0.0000 C   0  0  0  0  0  0  0  0  0  0  0  0
    6.3526    4.6145    0.0000 C   0  0  0  0  0  0  0  0  0  0  0  0
   -0.7500    1.2990    0.0000 C   0  0  0  0  0  0  0  0  0  0  0  0
   -1.5000    0.0000    0.0000 C   0  0  0  0  0  0  0  0  0  0  0  0
   -0.7500   -1.2990    0.0000 C   0  0  0  0  0  0  0  0  0  0  0  0
   -1.5000   -2.5981    0.0000 N   0  0  0  0  0  0  0  0  0  0  0  0
   -0.8899   -3.9684    0.0000 N   0  0  0  0  0  0  0  0  0  0  0  0
   -2.0046   -4.9721    0.0000 N   0  0  0  0  0  0  0  0  0  0  0  0
   -3.3037   -4.2221    0.0000 N   0  0  0  0  0  0  0  0  0  0  0  0
   -2.9918   -2.7549    0.0000 C   0  0  0  0  0  0  0  0  0  0  0  0
   -3.9955   -1.6402    0.0000 N   0  0  0  0  0  0  0  0  0  0  0  0
   -5.4627   -1.9520    0.0000 C   0  0  0  0  0  0  0  0  0  0  0  0
   -5.9262   -3.3786    0.0000 O   0  0  0  0  0  0  0  0  0  0  0  0
   -6.4664   -0.8373    0.0000 C   0  0  0  0  0  0  0  0  0  0  0  0
   -6.0029    0.5893    0.0000 C   0  0  0  0  0  0  0  0  0  0  0  0
   -7.0066    1.7040    0.0000 C   0  0  0  0  0  0  0  0  0  0  0  0
   -8.4738    1.3921    0.0000 C   0  0  0  0  0  0  0  0  0  0  0  0
   -9.4775    2.5068    0.0000 C   0  0  0  0  0  0  0  0  0  0  0  0
   -8.9373   -0.0345    0.0000 C   0  0  0  0  0  0  0  0  0  0  0  0
  -10.4045   -0.3463    0.0000 O   0  0  0  0  0  0  0  0  0  0  0  0
   -7.9336   -1.1492    0.0000 N   0  0  0  0  0  0  0  0  0  0  0  0
    2.9918   -2.7549    0.0000 C   0  0  0  0  0  0  0  0  0  0  0  0
    3.9955   -1.6402    0.0000 O   0  0  0  0  0  0  0  0  0  0  0  0
  1  2  1  0
  2  3  2  0
  3  4  1  0
  4  5  2  0
  5  6  1  0
  6  7  2  0
  7  8  1  0
  8  9  1  0
  9 10  1  0
 10 11  2  0
 11 12  1  0
 12 13  2  0
 13 14  1  0
 14 15  1  0
 15 16  2  0
 16 17  1  0
 17 18  2  0
 18 19  1  0
 19 20  2  0
 20 21  1  0
 21 22  2  0
 22 23  1  0
 23 24  2  0
 24 25  1  0
 25 26  2  0
  8 27  2  0
 27 28  1  0
 28 29  2  0
 29 30  1  0
 30 31  1  0
 31 32  2  0
 32 33  1  0
 33 34  2  0
 34 35  1  0
 35 36  1  0
 36 37  2  0
 36 38  1  0
 38 39  2  0
 39 40  1  0
 40 41  2  0
 41 42  1  0
 41 43  1  0
 43 44  2  0
 43 45  1  0
  5 46  1  0
 46 47  2  0
 46  2  1  0
 29  6  1  0
 34 30  1  0
 45 38  1  0
 14 10  1  0
 20 15  1  0
 26 21  1  0
M  END
>  <Title>  (197) 
idAAHOgen8

$$$$

     RDKit          2D

 18 20  0  0  0  0  0  0  0  0999 V2000
   -5.2500   -1.2990    0.0000 C   0  0  0  0  0  0  0  0  0  0  0  0
   -3.7500   -1.2990    0.0000 C   0  0  0  0  0  0  0  0  0  0  0  0
   -3.0000   -2.5981    0.0000 C   0  0  0  0  0  0  0  0  0  0  0  0
   -1.5000   -2.5981    0.0000 C   0  0  0  0  0  0  0  0  0  0  0  0
   -0.7500   -1.2990    0.0000 C   0  0  0  0  0  0  0  0  0  0  0  0
    0.7500   -1.2990    0.0000 C   0  0  0  0  0  0  0  0  0  0  0  0
    1.5000   -2.5981    0.0000 N   0  0  0  0  0  0  0  0  0  0  0  0
    2.9918   -2.7549    0.0000 C   0  0  0  0  0  0  0  0  0  0  0  0
    3.3037   -4.2221    0.0000 C   0  0  0  0  0  0  0  0  0  0  0  0
    2.0046   -4.9721    0.0000 C   0  0  0  0  0  0  0  0  0  0  0  0
    0.8899   -3.9684    0.0000 C   0  0  0  0  0  0  0  0  0  0  0  0
   -0.5773   -4.2803    0.0000 O   0  0  0  0  0  0  0  0  0  0  0  0
    1.5000    0.0000    0.0000 C   0  0  0  0  0  0  0  0  0  0  0  0
    0.7500    1.2990    0.0000 C   0  0  0  0  0  0  0  0  0  0  0  0
   -0.7500    1.2990    0.0000 C   0  0  0  0  0  0  0  0  0  0  0  0
   -1.5000    0.0000    0.0000 C   0  0  0  0  0  0  0  0  0  0  0  0
   -3.0000    0.0000    0.0000 C   0  0  0  0  0  0  0  0  0  0  0  0
   -3.7500    1.2990    0.0000 O   0  0  0  0  0  0  0  0  0  0  0  0
  1  2  1  0
  2  3  2  0
  3  4  1  0
  4  5  2  0
  5  6  1  0
  6  7  1  0
  7  8  1  0
  8  9  2  0
  9 10  1  0
 10 11  2  0
 11 12  1  0
  6 13  2  0
 13 14  1  0
 14 15  2  0
 15 16  1  0
 16 17  2  0
 17 18  1  0
 17  2  1  0
 16  5  1  0
 11  7  1  0
M  END
>  <Title>  (198) 
idAAHPgen8

$$$$

     RDKit          2D

 14 14  0  0  0  0  0  0  0  0999 V2000
    4.6339    0.0000    0.0000 C   0  0  0  0  0  0  0  0  0  0  0  0
    3.1339    0.0000    0.0000 C   0  0  0  0  0  0  0  0  0  0  0  0
    2.7750    1.4564    0.0000 C   0  0  0  0  0  0  0  0  0  0  0  0
    1.7803    2.5792    0.0000 C   0  0  0  0  0  0  0  0  0  0  0  0
    0.3778    3.1111    0.0000 C   0  0  0  0  0  0  0  0  0  0  0  0
   -1.1113    2.9303    0.0000 C   0  0  0  0  0  0  0  0  0  0  0  0
   -2.3458    2.0782    0.0000 C   0  0  0  0  0  0  0  0  0  0  0  0
   -3.0429    0.7500    0.0000 C   0  0  0  0  0  0  0  0  0  0  0  0
   -3.0429   -0.7500    0.0000 C   0  0  0  0  0  0  0  0  0  0  0  0
   -2.3458   -2.0782    0.0000 C   0  0  0  0  0  0  0  0  0  0  0  0
   -1.1113   -2.9303    0.0000 C   0  0  0  0  0  0  0  0  0  0  0  0
    0.3778   -3.1111    0.0000 C   0  0  0  0  0  0  0  0  0  0  0  0
    1.7803   -2.5792    0.0000 C   0  0  0  0  0  0  0  0  0  0  0  0
    2.7750   -1.4564    0.0000 C   0  0  0  0  0  0  0  0  0  0  0  0
  1  2  1  0
  2  3  2  0
  3  4  1  0
  4  5  2  0
  5  6  2  0
  6  7  1  0
  7  8  2  0
  8  9  1  0
  9 10  2  0
 10 11  1  0
 11 12  2  0
 12 13  1  0
 13 14  2  0
 14  2  1  0
M  END
>  <Title>  (199) 
idAAHQgen8

$$$$

     RDKit          2D

 24 27  0  0  0  0  0  0  0  0999 V2000
   -8.9594   -3.0956    0.0000 C   0  0  0  0  0  0  0  0  0  0  0  0
   -8.3493   -1.7253    0.0000 C   0  0  0  0  0  0  0  0  0  0  0  0
   -9.2310   -0.5118    0.0000 C   0  0  0  0  0  0  0  0  0  0  0  0
   -8.6209    0.8585    0.0000 C   0  0  0  0  0  0  0  0  0  0  0  0
   -7.1291    1.0153    0.0000 C   0  0  0  0  0  0  0  0  0  0  0  0
   -6.5190    2.3856    0.0000 C   0  0  0  0  0  0  0  0  0  0  0  0
   -7.4006    3.5992    0.0000 O   0  0  0  0  0  0  0  0  0  0  0  0
   -5.0272    2.5424    0.0000 N   0  0  0  0  0  0  0  0  0  0  0  0
   -4.4171    3.9127    0.0000 C   0  0  0  0  0  0  0  0  0  0  0  0
   -5.1671    5.2118    0.0000 N   0  0  0  0  0  0  0  0  0  0  0  0
   -4.1634    6.3265    0.0000 N   0  0  0  0  0  0  0  0  0  0  0  0
   -2.7931    5.7164    0.0000 N   0  0  0  0  0  0  0  0  0  0  0  0
   -2.9499    4.2246    0.0000 N   0  0  0  0  0  0  0  0  0  0  0  0
   -1.8351    3.2209    0.0000 C   0  0  0  0  0  0  0  0  0  0  0  0
   -0.4086    3.6844    0.0000 C   0  0  0  0  0  0  0  0  0  0  0  0
    0.7062    2.6807    0.0000 C   0  0  0  0  0  0  0  0  0  0  0  0
    0.3943    1.2135    0.0000 C   0  0  0  0  0  0  0  0  0  0  0  0
    1.2760    0.0000    0.0000 C   0  0  0  0  0  0  0  0  0  0  0  0
    0.3943   -1.2135    0.0000 C   0  0  0  0  0  0  0  0  0  0  0  0
   -1.0323   -0.7500    0.0000 C   0  0  0  0  0  0  0  0  0  0  0  0
   -1.0323    0.7500    0.0000 C   0  0  0  0  0  0  0  0  0  0  0  0
   -2.1470    1.7537    0.0000 N   0  0  0  0  0  0  0  0  0  0  0  0
   -6.2474   -0.1982    0.0000 C   0  0  0  0  0  0  0  0  0  0  0  0
   -6.8575   -1.5685    0.0000 C   0  0  0  0  0  0  0  0  0  0  0  0
  1  2  1  0
  2  3  2  0
  3  4  1  0
  4  5  2  0
  5  6  1  0
  6  7  2  0
  6  8  1  0
  8  9  1  0
  9 10  2  0
 10 11  1  0
 11 12  2  0
 12 13  1  0
 13 14  1  0
 14 15  2  0
 15 16  1  0
 16 17  2  0
 17 18  1  0
 18 19  2  0
 19 20  1  0
 20 21  2  0
 21 22  1  0
  5 23  1  0
 23 24  2  0
 24  2  1  0
 13  9  1  0
 22 14  1  0
 21 17  1  0
M  END
>  <Title>  (200) 
idAAHRgen8

$$$$

     RDKit          2D

 28 31  0  0  0  0  0  0  0  0999 V2000
    3.0000    0.0000    0.0000 C   0  0  0  0  0  0  0  0  0  0  0  0
    1.5000    0.0000    0.0000 C   0  0  0  0  0  0  0  0  0  0  0  0
    0.7500    1.2990    0.0000 C   0  0  0  0  0  0  0  0  0  0  0  0
   -0.7500    1.2990    0.0000 C   0  0  0  0  0  0  0  0  0  0  0  0
   -1.5000    0.0000    0.0000 C   0  0  0  0  0  0  0  0  0  0  0  0
   -3.0000    0.0000    0.0000 C   0  0  0  0  0  0  0  0  0  0  0  0
   -3.7500   -1.2990    0.0000 O   0  0  0  0  0  0  0  0  0  0  0  0
   -3.7500    1.2990    0.0000 N   0  0  0  0  0  0  0  0  0  0  0  0
   -5.2500    1.2990    0.0000 C   0  0  0  0  0  0  0  0  0  0  0  0
   -6.1317    0.0855    0.0000 N   0  0  0  0  0  0  0  0  0  0  0  0
   -7.5583    0.5490    0.0000 N   0  0  0  0  0  0  0  0  0  0  0  0
   -7.5583    2.0490    0.0000 N   0  0  0  0  0  0  0  0  0  0  0  0
   -6.1317    2.5126    0.0000 N   0  0  0  0  0  0  0  0  0  0  0  0
   -5.6682    3.9391    0.0000 C   0  0  0  0  0  0  0  0  0  0  0  0
   -4.2416    4.4027    0.0000 N   0  0  0  0  0  0  0  0  0  0  0  0
   -4.2416    5.9027    0.0000 N   0  0  0  0  0  0  0  0  0  0  0  0
   -5.6682    6.3662    0.0000 N   0  0  0  0  0  0  0  0  0  0  0  0
   -6.5498    5.1527    0.0000 N   0  0  0  0  0  0  0  0  0  0  0  0
   -8.0498    5.1527    0.0000 C   0  0  0  0  0  0  0  0  0  0  0  0
   -8.7998    3.8536    0.0000 C   0  0  0  0  0  0  0  0  0  0  0  0
  -10.2998    3.8536    0.0000 C   0  0  0  0  0  0  0  0  0  0  0  0
  -11.0498    5.1527    0.0000 C   0  0  0  0  0  0  0  0  0  0  0  0
  -12.5498    5.1527    0.0000 C   0  0  0  0  0  0  0  0  0  0  0  0
  -10.2998    6.4517    0.0000 C   0  0  0  0  0  0  0  0  0  0  0  0
  -11.0498    7.7508    0.0000 O   0  0  0  0  0  0  0  0  0  0  0  0
   -8.7998    6.4517    0.0000 N   0  0  0  0  0  0  0  0  0  0  0  0
   -0.7500   -1.2990    0.0000 C   0  0  0  0  0  0  0  0  0  0  0  0
    0.7500   -1.2990    0.0000 C   0  0  0  0  0  0  0  0  0  0  0  0
  1  2  1  0
  2  3  2  0
  3  4  1  0
  4  5  2  0
  5  6  1  0
  6  7  2  0
  6  8  1  0
  8  9  1  0
  9 10  2  0
 10 11  1  0
 11 12  2  0
 12 13  1  0
 13 14  1  0
 14 15  2  0
 15 16  1  0
 16 17  2  0
 17 18  1  0
 18 19  1  0
 19 20  2  0
 20 21  1  0
 21 22  2  0
 22 23  1  0
 22 24  1  0
 24 25  2  0
 24 26  1  0
  5 27  1  0
 27 28  2  0
 28  2  1  0
 13  9  1  0
 18 14  1  0
 26 19  1  0
M  END
>  <Title>  (201) 
idAAHSgen8

$$$$

     RDKit          2D

 34 38  0  0  0  0  0  0  0  0999 V2000
    3.2286   -0.0000    0.0000 C   0  0  0  0  0  0  0  0  0  0  0  0
    1.7286    0.0000    0.0000 C   0  0  0  0  0  0  0  0  0  0  0  0
    1.0777    1.3515    0.0000 C   0  0  0  0  0  0  0  0  0  0  0  0
   -0.3846    1.6852    0.0000 C   0  0  0  0  0  0  0  0  0  0  0  0
   -1.5574    0.7500    0.0000 C   0  0  0  0  0  0  0  0  0  0  0  0
   -2.9088    1.4008    0.0000 C   0  0  0  0  0  0  0  0  0  0  0  0
   -4.2297    0.6900    0.0000 N   0  0  0  0  0  0  0  0  0  0  0  0
   -5.3139    1.7266    0.0000 N   0  0  0  0  0  0  0  0  0  0  0  0
   -4.6631    3.0781    0.0000 N   0  0  0  0  0  0  0  0  0  0  0  0
   -3.1767    2.8767    0.0000 N   0  0  0  0  0  0  0  0  0  0  0  0
   -2.1401    3.9609    0.0000 C   0  0  0  0  0  0  0  0  0  0  0  0
   -2.4079    5.4368    0.0000 C   0  0  0  0  0  0  0  0  0  0  0  0
   -1.0870    6.1476    0.0000 C   0  0  0  0  0  0  0  0  0  0  0  0
   -0.0028    5.1110    0.0000 C   0  0  0  0  0  0  0  0  0  0  0  0
    1.4731    5.3789    0.0000 C   0  0  0  0  0  0  0  0  0  0  0  0
    1.6223    6.8714    0.0000 O   0  0  0  0  0  0  0  0  0  0  0  0
    2.4430    4.2346    0.0000 N   0  0  0  0  0  0  0  0  0  0  0  0
    3.9189    4.5024    0.0000 C   0  0  0  0  0  0  0  0  0  0  0  0
    5.0030    3.4658    0.0000 N   0  0  0  0  0  0  0  0  0  0  0  0
    6.3239    4.1767    0.0000 N   0  0  0  0  0  0  0  0  0  0  0  0
    6.0561    5.6525    0.0000 N   0  0  0  0  0  0  0  0  0  0  0  0
    4.5697    5.8539    0.0000 N   0  0  0  0  0  0  0  0  0  0  0  0
    3.8589    7.1748    0.0000 C   0  0  0  0  0  0  0  0  0  0  0  0
    4.6474    8.4508    0.0000 C   0  0  0  0  0  0  0  0  0  0  0  0
    3.9366    9.7717    0.0000 C   0  0  0  0  0  0  0  0  0  0  0  0
    2.4373    9.8166    0.0000 C   0  0  0  0  0  0  0  0  0  0  0  0
    1.6487    8.5406    0.0000 C   0  0  0  0  0  0  0  0  0  0  0  0
    2.3595    7.2197    0.0000 C   0  0  0  0  0  0  0  0  0  0  0  0
   -0.6537    3.7596    0.0000 C   0  0  0  0  0  0  0  0  0  0  0  0
    0.0571    2.4387    0.0000 O   0  0  0  0  0  0  0  0  0  0  0  0
   -1.5574   -0.7500    0.0000 N   0  0  0  0  0  0  0  0  0  0  0  0
   -0.3846   -1.6852    0.0000 C   0  0  0  0  0  0  0  0  0  0  0  0
   -0.7184   -3.1476    0.0000 O   0  0  0  0  0  0  0  0  0  0  0  0
    1.0777   -1.3515    0.0000 N   0  0  0  0  0  0  0  0  0  0  0  0
  1  2  1  0
  2  3  2  0
  3  4  1  0
  4  5  2  0
  5  6  1  0
  6  7  2  0
  7  8  1  0
  8  9  2  0
  9 10  1  0
 10 11  1  0
 11 12  2  0
 12 13  1  0
 13 14  2  0
 14 15  1  0
 15 16  2  0
 15 17  1  0
 17 18  1  0
 18 19  2  0
 19 20  1  0
 20 21  2  0
 21 22  1  0
 22 23  1  0
 23 24  2  0
 24 25  1  0
 25 26  2  0
 26 27  1  0
 27 28  2  0
 14 29  1  0
 29 30  2  0
  5 31  1  0
 31 32  1  0
 32 33  2  0
 32 34  1  0
 34  2  1  0
 10  6  1  0
 29 11  1  0
 22 18  1  0
 28 23  1  0
M  END
>  <Title>  (202) 
idAAHTgen8

$$$$

     RDKit          2D

 42 48  0  0  0  0  0  0  0  0999 V2000
    3.0000    0.0000    0.0000 C   0  0  0  0  0  0  0  0  0  0  0  0
    1.5000    0.0000    0.0000 C   0  0  0  0  0  0  0  0  0  0  0  0
    0.7500   -1.2990    0.0000 C   0  0  0  0  0  0  0  0  0  0  0  0
   -0.7500   -1.2990    0.0000 C   0  0  0  0  0  0  0  0  0  0  0  0
   -1.5000    0.0000    0.0000 C   0  0  0  0  0  0  0  0  0  0  0  0
   -3.0000    0.0000    0.0000 C   0  0  0  0  0  0  0  0  0  0  0  0
   -3.8817   -1.2135    0.0000 N   0  0  0  0  0  0  0  0  0  0  0  0
   -5.3083   -0.7500    0.0000 N   0  0  0  0  0  0  0  0  0  0  0  0
   -5.3083    0.7500    0.0000 N   0  0  0  0  0  0  0  0  0  0  0  0
   -3.8817    1.2135    0.0000 N   0  0  0  0  0  0  0  0  0  0  0  0
   -3.4182    2.6401    0.0000 C   0  0  0  0  0  0  0  0  0  0  0  0
   -1.9509    2.9520    0.0000 C   0  0  0  0  0  0  0  0  0  0  0  0
   -1.4874    4.3786    0.0000 C   0  0  0  0  0  0  0  0  0  0  0  0
   -2.4911    5.4933    0.0000 C   0  0  0  0  0  0  0  0  0  0  0  0
   -2.0276    6.9199    0.0000 C   0  0  0  0  0  0  0  0  0  0  0  0
   -2.9093    8.1334    0.0000 N   0  0  0  0  0  0  0  0  0  0  0  0
   -2.0276    9.3469    0.0000 N   0  0  0  0  0  0  0  0  0  0  0  0
   -0.6010    8.8834    0.0000 N   0  0  0  0  0  0  0  0  0  0  0  0
   -0.6010    7.3834    0.0000 N   0  0  0  0  0  0  0  0  0  0  0  0
    0.6125    6.5017    0.0000 C   0  0  0  0  0  0  0  0  0  0  0  0
    0.4557    5.0099    0.0000 C   0  0  0  0  0  0  0  0  0  0  0  0
    1.6693    4.1283    0.0000 C   0  0  0  0  0  0  0  0  0  0  0  0
    3.0396    4.7384    0.0000 C   0  0  0  0  0  0  0  0  0  0  0  0
    3.1964    6.2301    0.0000 C   0  0  0  0  0  0  0  0  0  0  0  0
    1.9829    7.1118    0.0000 C   0  0  0  0  0  0  0  0  0  0  0  0
   -3.9583    5.1814    0.0000 C   0  0  0  0  0  0  0  0  0  0  0  0
   -4.4218    3.7548    0.0000 C   0  0  0  0  0  0  0  0  0  0  0  0
   -5.8891    3.4430    0.0000 C   0  0  0  0  0  0  0  0  0  0  0  0
   -6.4992    2.0726    0.0000 C   0  0  0  0  0  0  0  0  0  0  0  0
   -7.9910    2.2294    0.0000 N   0  0  0  0  0  0  0  0  0  0  0  0
   -8.3028    3.6967    0.0000 N   0  0  0  0  0  0  0  0  0  0  0  0
   -7.0038    4.4467    0.0000 N   0  0  0  0  0  0  0  0  0  0  0  0
   -6.8470    5.9384    0.0000 C   0  0  0  0  0  0  0  0  0  0  0  0
   -5.4767    6.5485    0.0000 C   0  0  0  0  0  0  0  0  0  0  0  0
   -5.3199    8.0403    0.0000 C   0  0  0  0  0  0  0  0  0  0  0  0
   -6.5334    8.9220    0.0000 C   0  0  0  0  0  0  0  0  0  0  0  0
   -7.9037    8.3119    0.0000 C   0  0  0  0  0  0  0  0  0  0  0  0
   -8.0605    6.8201    0.0000 C   0  0  0  0  0  0  0  0  0  0  0  0
   -9.4308    6.2100    0.0000 O   0  0  0  0  0  0  0  0  0  0  0  0
   -0.7500    1.2990    0.0000 N   0  0  0  0  0  0  0  0  0  0  0  0
    0.7500    1.2990    0.0000 C   0  0  0  0  0  0  0  0  0  0  0  0
    1.5000    2.5981    0.0000 O   0  0  0  0  0  0  0  0  0  0  0  0
  1  2  1  0
  2  3  2  0
  3  4  1  0
  4  5  2  0
  5  6  1  0
  6  7  2  0
  7  8  1  0
  8  9  2  0
  9 10  1  0
 10 11  1  0
 11 12  2  0
 12 13  1  0
 13 14  2  0
 14 15  1  0
 15 16  2  0
 16 17  1  0
 17 18  2  0
 18 19  1  0
 19 20  1  0
 20 21  2  0
 21 22  1  0
 22 23  2  0
 23 24  1  0
 24 25  2  0
 14 26  1  0
 26 27  2  0
 27 28  1  0
 28 29  2  0
 29 30  1  0
 30 31  2  0
 31 32  1  0
 32 33  1  0
 33 34  2  0
 34 35  1  0
 35 36  2  0
 36 37  1  0
 37 38  2  0
 38 39  1  0
  5 40  1  0
 40 41  1  0
 41 42  2  0
 41  2  1  0
 10  6  1  0
 27 11  1  0
 32 28  1  0
 38 33  1  0
 19 15  1  0
 25 20  1  0
M  END
>  <Title>  (203) 
idAAHUgen8

$$$$

     RDKit          2D

 12 12  0  0  0  0  0  0  0  0999 V2000
    3.9271    0.0000    0.0000 O   0  0  0  0  0  0  0  0  0  0  0  0
    2.4271    0.0000    0.0000 C   0  0  0  0  0  0  0  0  0  0  0  0
    1.9635   -1.4266    0.0000 C   0  0  0  0  0  0  0  0  0  0  0  0
    0.7500   -2.3083    0.0000 C   0  0  0  0  0  0  0  0  0  0  0  0
   -0.7500   -2.3083    0.0000 C   0  0  0  0  0  0  0  0  0  0  0  0
   -1.9635   -1.4266    0.0000 C   0  0  0  0  0  0  0  0  0  0  0  0
   -2.4271    0.0000    0.0000 C   0  0  0  0  0  0  0  0  0  0  0  0
   -1.9635    1.4266    0.0000 C   0  0  0  0  0  0  0  0  0  0  0  0
   -0.7500    2.3083    0.0000 C   0  0  0  0  0  0  0  0  0  0  0  0
    0.7500    2.3083    0.0000 C   0  0  0  0  0  0  0  0  0  0  0  0
    1.9635    1.4266    0.0000 C   0  0  0  0  0  0  0  0  0  0  0  0
    3.1771    2.3083    0.0000 O   0  0  0  0  0  0  0  0  0  0  0  0
  1  2  1  0
  2  3  2  0
  3  4  1  0
  4  5  2  0
  5  6  1  0
  6  7  2  0
  7  8  1  0
  8  9  2  0
  9 10  1  0
 10 11  2  0
 11 12  1  0
 11  2  1  0
M  END
>  <Title>  (204) 
idAAHVgen8

$$$$

     RDKit          2D

 36 41  0  0  0  0  0  0  0  0999 V2000
   -2.5242   -4.8694    0.0000 C   0  0  0  0  0  0  0  0  0  0  0  0
   -1.3515   -3.9342    0.0000 C   0  0  0  0  0  0  0  0  0  0  0  0
   -0.0000   -4.5850    0.0000 C   0  0  0  0  0  0  0  0  0  0  0  0
    1.3515   -3.9342    0.0000 C   0  0  0  0  0  0  0  0  0  0  0  0
    1.6852   -2.4718    0.0000 C   0  0  0  0  0  0  0  0  0  0  0  0
    3.1476   -2.1380    0.0000 C   0  0  0  0  0  0  0  0  0  0  0  0
    3.7372   -0.7587    0.0000 N   0  0  0  0  0  0  0  0  0  0  0  0
    5.2311   -0.8932    0.0000 N   0  0  0  0  0  0  0  0  0  0  0  0
    5.5649   -2.3556    0.0000 N   0  0  0  0  0  0  0  0  0  0  0  0
    4.2772   -3.1249    0.0000 N   0  0  0  0  0  0  0  0  0  0  0  0
    4.1428   -4.6189    0.0000 C   0  0  0  0  0  0  0  0  0  0  0  0
    5.2724   -5.6058    0.0000 C   0  0  0  0  0  0  0  0  0  0  0  0
    4.6828   -6.9851    0.0000 C   0  0  0  0  0  0  0  0  0  0  0  0
    3.1889   -6.8506    0.0000 C   0  0  0  0  0  0  0  0  0  0  0  0
    2.2020   -7.9802    0.0000 C   0  0  0  0  0  0  0  0  0  0  0  0
    0.7080   -7.8458    0.0000 N   0  0  0  0  0  0  0  0  0  0  0  0
    0.1185   -9.2251    0.0000 N   0  0  0  0  0  0  0  0  0  0  0  0
    1.2481  -10.2120    0.0000 N   0  0  0  0  0  0  0  0  0  0  0  0
    2.5358   -9.4426    0.0000 N   0  0  0  0  0  0  0  0  0  0  0  0
    3.9150  -10.0322    0.0000 C   0  0  0  0  0  0  0  0  0  0  0  0
    5.1152   -9.1324    0.0000 C   0  0  0  0  0  0  0  0  0  0  0  0
    6.4945   -9.7220    0.0000 C   0  0  0  0  0  0  0  0  0  0  0  0
    6.6736  -11.2112    0.0000 C   0  0  0  0  0  0  0  0  0  0  0  0
    5.4734  -12.1110    0.0000 C   0  0  0  0  0  0  0  0  0  0  0  0
    4.0941  -11.5214    0.0000 C   0  0  0  0  0  0  0  0  0  0  0  0
    2.8551   -5.3882    0.0000 C   0  0  0  0  0  0  0  0  0  0  0  0
    1.4758   -4.7987    0.0000 O   0  0  0  0  0  0  0  0  0  0  0  0
    0.7500   -1.2990    0.0000 C   0  0  0  0  0  0  0  0  0  0  0  0
    1.5000    0.0000    0.0000 C   0  0  0  0  0  0  0  0  0  0  0  0
    0.7500    1.2990    0.0000 C   0  0  0  0  0  0  0  0  0  0  0  0
   -0.7500    1.2990    0.0000 C   0  0  0  0  0  0  0  0  0  0  0  0
   -1.5000    2.5981    0.0000 F   0  0  0  0  0  0  0  0  0  0  0  0
   -1.5000    0.0000    0.0000 C   0  0  0  0  0  0  0  0  0  0  0  0
   -0.7500   -1.2990    0.0000 C   0  0  0  0  0  0  0  0  0  0  0  0
   -1.6852   -2.4718    0.0000 C   0  0  0  0  0  0  0  0  0  0  0  0
   -3.1476   -2.1380    0.0000 O   0  0  0  0  0  0  0  0  0  0  0  0
  1  2  1  0
  2  3  2  0
  3  4  1  0
  4  5  2  0
  5  6  1  0
  6  7  2  0
  7  8  1  0
  8  9  2  0
  9 10  1  0
 10 11  1  0
 11 12  2  0
 12 13  1  0
 13 14  2  0
 14 15  1  0
 15 16  2  0
 16 17  1  0
 17 18  2  0
 18 19  1  0
 19 20  1  0
 20 21  2  0
 21 22  1  0
 22 23  2  0
 23 24  1  0
 24 25  2  0
 14 26  1  0
 26 27  2  0
  5 28  1  0
 28 29  2  0
 29 30  1  0
 30 31  2  0
 31 32  1  0
 31 33  1  0
 33 34  2  0
 34 35  1  0
 35 36  2  0
 35  2  1  0
 10  6  1  0
 26 11  1  0
 34 28  1  0
 19 15  1  0
 25 20  1  0
M  END
>  <Title>  (205) 
idAAHWgen8

$$$$

     RDKit          2D

 22 22  0  0  0  0  0  0  0  0999 V2000
    7.0443   -1.2990    0.0000 C   0  0  0  0  0  0  0  0  0  0  0  0
    6.2943    0.0000    0.0000 O   0  0  0  0  0  0  0  0  0  0  0  0
    4.7943    0.0000    0.0000 C   0  0  0  0  0  0  0  0  0  0  0  0
    4.5597   -1.4815    0.0000 C   0  0  0  0  0  0  0  0  0  0  0  0
    3.8787   -2.8180    0.0000 C   0  0  0  0  0  0  0  0  0  0  0  0
    2.8180   -3.8787    0.0000 C   0  0  0  0  0  0  0  0  0  0  0  0
    1.4815   -4.5597    0.0000 C   0  0  0  0  0  0  0  0  0  0  0  0
   -0.0000   -4.7943    0.0000 C   0  0  0  0  0  0  0  0  0  0  0  0
   -1.4815   -4.5597    0.0000 C   0  0  0  0  0  0  0  0  0  0  0  0
   -2.8180   -3.8787    0.0000 C   0  0  0  0  0  0  0  0  0  0  0  0
   -3.8787   -2.8180    0.0000 C   0  0  0  0  0  0  0  0  0  0  0  0
   -4.5597   -1.4815    0.0000 C   0  0  0  0  0  0  0  0  0  0  0  0
   -4.7943    0.0000    0.0000 C   0  0  0  0  0  0  0  0  0  0  0  0
   -4.5597    1.4815    0.0000 C   0  0  0  0  0  0  0  0  0  0  0  0
   -3.8787    2.8180    0.0000 C   0  0  0  0  0  0  0  0  0  0  0  0
   -2.8180    3.8787    0.0000 C   0  0  0  0  0  0  0  0  0  0  0  0
   -1.4815    4.5597    0.0000 C   0  0  0  0  0  0  0  0  0  0  0  0
    0.0000    4.7943    0.0000 C   0  0  0  0  0  0  0  0  0  0  0  0
    1.4815    4.5597    0.0000 C   0  0  0  0  0  0  0  0  0  0  0  0
    2.8180    3.8787    0.0000 C   0  0  0  0  0  0  0  0  0  0  0  0
    3.8787    2.8180    0.0000 C   0  0  0  0  0  0  0  0  0  0  0  0
    4.5597    1.4815    0.0000 C   0  0  0  0  0  0  0  0  0  0  0  0
  1  2  1  0
  2  3  1  0
  3  4  2  0
  4  5  1  0
  5  6  2  0
  6  7  1  0
  7  8  2  0
  8  9  1  0
  9 10  2  0
 10 11  1  0
 11 12  2  0
 12 13  1  0
 13 14  2  0
 14 15  1  0
 15 16  2  0
 16 17  1  0
 17 18  2  0
 18 19  1  0
 19 20  2  0
 20 21  1  0
 21 22  2  0
 22  3  1  0
M  END
>  <Title>  (206) 
idAAHXgen8

$$$$

     RDKit          2D

 45 49  0  0  0  0  0  0  0  0999 V2000
    5.7956   -3.6742    0.0000 C   0  0  0  0  0  0  0  0  0  0  0  0
    4.3467   -3.2860    0.0000 C   0  0  0  0  0  0  0  0  0  0  0  0
    3.2860   -4.3467    0.0000 C   0  0  0  0  0  0  0  0  0  0  0  0
    1.8371   -3.9584    0.0000 C   0  0  0  0  0  0  0  0  0  0  0  0
    1.4489   -2.5095    0.0000 C   0  0  0  0  0  0  0  0  0  0  0  0
    2.5095   -1.4489    0.0000 C   0  0  0  0  0  0  0  0  0  0  0  0
    3.9584   -1.8371    0.0000 C   0  0  0  0  0  0  0  0  0  0  0  0
    2.8978    0.0000    0.0000 N   0  0  0  0  0  0  0  0  0  0  0  0
    2.5095    1.4489    0.0000 C   0  0  0  0  0  0  0  0  0  0  0  0
    1.4489    2.5095    0.0000 C   0  0  0  0  0  0  0  0  0  0  0  0
    0.0000    2.8978    0.0000 C   0  0  0  0  0  0  0  0  0  0  0  0
   -1.4489    2.5095    0.0000 C   0  0  0  0  0  0  0  0  0  0  0  0
   -2.5095    1.4489    0.0000 C   0  0  0  0  0  0  0  0  0  0  0  0
   -2.8978    0.0000    0.0000 C   0  0  0  0  0  0  0  0  0  0  0  0
   -2.5095   -1.4489    0.0000 C   0  0  0  0  0  0  0  0  0  0  0  0
   -1.4489   -2.5095    0.0000 C   0  0  0  0  0  0  0  0  0  0  0  0
   -0.0000   -2.8978    0.0000 C   0  0  0  0  0  0  0  0  0  0  0  0
   -0.0000   -4.3978    0.0000 C   0  0  0  0  0  0  0  0  0  0  0  0
   -1.2990   -5.1478    0.0000 C   0  0  0  0  0  0  0  0  0  0  0  0
   -1.2990   -6.6478    0.0000 C   0  0  0  0  0  0  0  0  0  0  0  0
   -2.5981   -7.3978    0.0000 C   0  0  0  0  0  0  0  0  0  0  0  0
   -2.5981   -8.8978    0.0000 C   0  0  0  0  0  0  0  0  0  0  0  0
   -1.2990   -9.6478    0.0000 C   0  0  0  0  0  0  0  0  0  0  0  0
   -1.2990  -11.1478    0.0000 C   0  0  0  0  0  0  0  0  0  0  0  0
   -0.0000  -11.8978    0.0000 O   0  0  0  0  0  0  0  0  0  0  0  0
   -2.5981  -11.8978    0.0000 N   0  0  0  0  0  0  0  0  0  0  0  0
   -2.5981  -13.3978    0.0000 C   0  0  0  0  0  0  0  0  0  0  0  0
   -1.3846  -14.2795    0.0000 N   0  0  0  0  0  0  0  0  0  0  0  0
   -1.8481  -15.7060    0.0000 N   0  0  0  0  0  0  0  0  0  0  0  0
   -3.3481  -15.7060    0.0000 N   0  0  0  0  0  0  0  0  0  0  0  0
   -3.8116  -14.2795    0.0000 N   0  0  0  0  0  0  0  0  0  0  0  0
   -5.2382  -13.8159    0.0000 C   0  0  0  0  0  0  0  0  0  0  0  0
   -5.5501  -12.3487    0.0000 C   0  0  0  0  0  0  0  0  0  0  0  0
   -6.9766  -11.8852    0.0000 C   0  0  0  0  0  0  0  0  0  0  0  0
   -8.0914  -12.8889    0.0000 C   0  0  0  0  0  0  0  0  0  0  0  0
   -9.5179  -12.4254    0.0000 C   0  0  0  0  0  0  0  0  0  0  0  0
  -10.6327  -13.4290    0.0000 O   0  0  0  0  0  0  0  0  0  0  0  0
   -9.8298  -10.9581    0.0000 N   0  0  0  0  0  0  0  0  0  0  0  0
  -11.2564  -10.4946    0.0000 O   0  0  0  0  0  0  0  0  0  0  0  0
   -7.7795  -14.3561    0.0000 C   0  0  0  0  0  0  0  0  0  0  0  0
   -8.8942  -15.3598    0.0000 C   0  0  0  0  0  0  0  0  0  0  0  0
   -6.3529  -14.8196    0.0000 C   0  0  0  0  0  0  0  0  0  0  0  0
   -6.0410  -16.2868    0.0000 O   0  0  0  0  0  0  0  0  0  0  0  0
   -0.0000   -8.8978    0.0000 C   0  0  0  0  0  0  0  0  0  0  0  0
   -0.0000   -7.3978    0.0000 C   0  0  0  0  0  0  0  0  0  0  0  0
  1  2  1  0
  2  3  2  0
  3  4  1  0
  4  5  2  0
  5  6  1  0
  6  7  2  0
  6  8  1  0
  8  9  2  0
  9 10  1  0
 10 11  2  0
 11 12  1  0
 12 13  2  0
 13 14  1  0
 14 15  2  0
 15 16  1  0
 16 17  2  0
 17 18  1  0
 18 19  1  0
 19 20  1  0
 20 21  2  0
 21 22  1  0
 22 23  2  0
 23 24  1  0
 24 25  2  0
 24 26  1  0
 26 27  1  0
 27 28  2  0
 28 29  1  0
 29 30  2  0
 30 31  1  0
 31 32  1  0
 32 33  2  0
 33 34  1  0
 34 35  2  0
 35 36  1  0
 36 37  2  0
 36 38  1  0
 38 39  1  0
 35 40  1  0
 40 41  1  0
 40 42  1  0
 42 43  2  0
 23 44  1  0
 44 45  2  0
  7  2  1  0
 45 20  1  0
 17  5  1  0
 31 27  1  0
 42 32  1  0
M  END
>  <Title>  (207) 
idAAHYgen8

$$$$

     RDKit          2D

 43 48  0  0  0  0  0  0  0  0999 V2000
    3.6929    0.0000    0.0000 C   0  0  0  0  0  0  0  0  0  0  0  0
    2.1929    0.0000    0.0000 C   0  0  0  0  0  0  0  0  0  0  0  0
    1.6798    1.4095    0.0000 C   0  0  0  0  0  0  0  0  0  0  0  0
    0.3808    2.1595    0.0000 C   0  0  0  0  0  0  0  0  0  0  0  0
   -1.0964    1.8991    0.0000 C   0  0  0  0  0  0  0  0  0  0  0  0
   -2.0606    0.7500    0.0000 C   0  0  0  0  0  0  0  0  0  0  0  0
   -2.0606   -0.7500    0.0000 C   0  0  0  0  0  0  0  0  0  0  0  0
   -3.4701   -1.2630    0.0000 N   0  0  0  0  0  0  0  0  0  0  0  0
   -4.6192   -0.2988    0.0000 C   0  0  0  0  0  0  0  0  0  0  0  0
   -6.0288   -0.8119    0.0000 C   0  0  0  0  0  0  0  0  0  0  0  0
   -6.2892   -2.2891    0.0000 C   0  0  0  0  0  0  0  0  0  0  0  0
   -5.1402   -3.2533    0.0000 C   0  0  0  0  0  0  0  0  0  0  0  0
   -3.7306   -2.7402    0.0000 C   0  0  0  0  0  0  0  0  0  0  0  0
   -2.5816   -3.7044    0.0000 C   0  0  0  0  0  0  0  0  0  0  0  0
   -1.1261   -3.3415    0.0000 C   0  0  0  0  0  0  0  0  0  0  0  0
   -0.3312   -4.6136    0.0000 N   0  0  0  0  0  0  0  0  0  0  0  0
   -1.2954   -5.7627    0.0000 N   0  0  0  0  0  0  0  0  0  0  0  0
   -2.6862   -5.2008    0.0000 N   0  0  0  0  0  0  0  0  0  0  0  0
   -3.9583   -5.9956    0.0000 C   0  0  0  0  0  0  0  0  0  0  0  0
   -5.2827   -5.2914    0.0000 C   0  0  0  0  0  0  0  0  0  0  0  0
   -6.5548   -6.0863    0.0000 C   0  0  0  0  0  0  0  0  0  0  0  0
   -6.5024   -7.5854    0.0000 C   0  0  0  0  0  0  0  0  0  0  0  0
   -7.7745   -8.3803    0.0000 C   0  0  0  0  0  0  0  0  0  0  0  0
   -7.8791   -9.8766    0.0000 C   0  0  0  0  0  0  0  0  0  0  0  0
   -9.3346  -10.2395    0.0000 N   0  0  0  0  0  0  0  0  0  0  0  0
  -10.1294   -8.9674    0.0000 N   0  0  0  0  0  0  0  0  0  0  0  0
   -9.1653   -7.8184    0.0000 N   0  0  0  0  0  0  0  0  0  0  0  0
   -9.5281   -6.3629    0.0000 C   0  0  0  0  0  0  0  0  0  0  0  0
   -8.4491   -5.3209    0.0000 C   0  0  0  0  0  0  0  0  0  0  0  0
   -8.8120   -3.8655    0.0000 C   0  0  0  0  0  0  0  0  0  0  0  0
  -10.2539   -3.4520    0.0000 C   0  0  0  0  0  0  0  0  0  0  0  0
  -10.6168   -1.9966    0.0000 C   0  0  0  0  0  0  0  0  0  0  0  0
  -11.3329   -4.4940    0.0000 N   0  0  0  0  0  0  0  0  0  0  0  0
  -12.7748   -4.0806    0.0000 C   0  0  0  0  0  0  0  0  0  0  0  0
  -10.9700   -5.9495    0.0000 C   0  0  0  0  0  0  0  0  0  0  0  0
  -12.0490   -6.9915    0.0000 O   0  0  0  0  0  0  0  0  0  0  0  0
   -5.1780   -8.2896    0.0000 N   0  0  0  0  0  0  0  0  0  0  0  0
   -3.9059   -7.4947    0.0000 C   0  0  0  0  0  0  0  0  0  0  0  0
   -2.5815   -8.1989    0.0000 O   0  0  0  0  0  0  0  0  0  0  0  0
   -1.0964   -1.8991    0.0000 N   0  0  0  0  0  0  0  0  0  0  0  0
    0.3808   -2.1595    0.0000 C   0  0  0  0  0  0  0  0  0  0  0  0
    0.6413   -3.6368    0.0000 O   0  0  0  0  0  0  0  0  0  0  0  0
    1.6798   -1.4095    0.0000 N   0  0  0  0  0  0  0  0  0  0  0  0
  1  2  1  0
  2  3  2  0
  3  4  1  0
  4  5  2  0
  5  6  1  0
  6  7  2  0
  7  8  1  0
  8  9  1  0
  9 10  1  0
 10 11  1  0
 11 12  1  0
 12 13  1  0
 13 14  1  0
 14 15  2  0
 15 16  1  0
 16 17  2  0
 17 18  1  0
 18 19  1  0
 19 20  2  0
 20 21  1  0
 21 22  2  0
 22 23  1  0
 23 24  2  0
 24 25  1  0
 25 26  2  0
 26 27  1  0
 27 28  1  0
 28 29  2  0
 29 30  1  0
 30 31  2  0
 31 32  1  0
 31 33  1  0
 33 34  1  0
 33 35  1  0
 35 36  2  0
 22 37  1  0
 37 38  1  0
 38 39  2  0
  7 40  1  0
 40 41  1  0
 41 42  2  0
 41 43  1  0
 43  2  1  0
 13  8  1  0
 18 14  1  0
 38 19  1  0
 27 23  1  0
 35 28  1  0
M  END
>  <Title>  (208) 
idAAHZgen8

$$$$

     RDKit          2D

 24 24  0  0  0  0  0  0  0  0999 V2000
    6.7700    0.0000    0.0000 C   0  0  0  0  0  0  0  0  0  0  0  0
    5.2700    0.0000    0.0000 C   0  0  0  0  0  0  0  0  0  0  0  0
    5.0565   -1.4847    0.0000 C   0  0  0  0  0  0  0  0  0  0  0  0
    4.4334   -2.8492    0.0000 C   0  0  0  0  0  0  0  0  0  0  0  0
    3.4511   -3.9828    0.0000 C   0  0  0  0  0  0  0  0  0  0  0  0
    2.1892   -4.7938    0.0000 C   0  0  0  0  0  0  0  0  0  0  0  0
    0.7500   -5.2164    0.0000 C   0  0  0  0  0  0  0  0  0  0  0  0
   -0.7500   -5.2164    0.0000 C   0  0  0  0  0  0  0  0  0  0  0  0
   -2.1892   -4.7938    0.0000 C   0  0  0  0  0  0  0  0  0  0  0  0
   -3.4511   -3.9828    0.0000 C   0  0  0  0  0  0  0  0  0  0  0  0
   -4.4334   -2.8492    0.0000 C   0  0  0  0  0  0  0  0  0  0  0  0
   -5.0565   -1.4847    0.0000 C   0  0  0  0  0  0  0  0  0  0  0  0
   -5.2700    0.0000    0.0000 C   0  0  0  0  0  0  0  0  0  0  0  0
   -5.0565    1.4847    0.0000 C   0  0  0  0  0  0  0  0  0  0  0  0
   -4.4334    2.8492    0.0000 C   0  0  0  0  0  0  0  0  0  0  0  0
   -3.4511    3.9828    0.0000 C   0  0  0  0  0  0  0  0  0  0  0  0
   -2.1892    4.7938    0.0000 C   0  0  0  0  0  0  0  0  0  0  0  0
   -0.7500    5.2164    0.0000 C   0  0  0  0  0  0  0  0  0  0  0  0
    0.7500    5.2164    0.0000 C   0  0  0  0  0  0  0  0  0  0  0  0
    2.1892    4.7938    0.0000 C   0  0  0  0  0  0  0  0  0  0  0  0
    3.4511    3.9828    0.0000 C   0  0  0  0  0  0  0  0  0  0  0  0
    4.4334    2.8492    0.0000 C   0  0  0  0  0  0  0  0  0  0  0  0
    5.0565    1.4847    0.0000 C   0  0  0  0  0  0  0  0  0  0  0  0
    6.4958    1.9073    0.0000 O   0  0  0  0  0  0  0  0  0  0  0  0
  1  2  1  0
  2  3  2  0
  3  4  1  0
  4  5  2  0
  5  6  2  0
  6  7  2  0
  7  8  1  0
  8  9  2  0
  9 10  1  0
 10 11  2  0
 11 12  1  0
 12 13  2  0
 13 14  1  0
 14 15  2  0
 15 16  1  0
 16 17  2  0
 17 18  1  0
 18 19  2  0
 19 20  1  0
 20 21  2  0
 21 22  1  0
 22 23  2  0
 23 24  1  0
 23  2  1  0
M  END
>  <Title>  (209) 
idAAIAgen8

$$$$

     RDKit          2D

 25 26  0  0  0  0  0  0  0  0999 V2000
   -4.6025   -0.2128    0.0000 C   0  0  0  0  0  0  0  0  0  0  0  0
   -3.9719    1.1482    0.0000 C   0  0  0  0  0  0  0  0  0  0  0  0
   -5.2238    1.9745    0.0000 C   0  0  0  0  0  0  0  0  0  0  0  0
   -6.1765    3.1332    0.0000 C   0  0  0  0  0  0  0  0  0  0  0  0
   -6.7453    4.5211    0.0000 C   0  0  0  0  0  0  0  0  0  0  0  0
   -6.8798    6.0151    0.0000 C   0  0  0  0  0  0  0  0  0  0  0  0
   -6.5679    7.4823    0.0000 C   0  0  0  0  0  0  0  0  0  0  0  0
   -5.8374    8.7924    0.0000 C   0  0  0  0  0  0  0  0  0  0  0  0
   -4.7532    9.8290    0.0000 C   0  0  0  0  0  0  0  0  0  0  0  0
   -3.4117   10.5000    0.0000 C   0  0  0  0  0  0  0  0  0  0  0  0
   -1.9319   10.7457    0.0000 C   0  0  0  0  0  0  0  0  0  0  0  0
   -0.4455   10.5444    0.0000 C   0  0  0  0  0  0  0  0  0  0  0  0
    0.9155    9.9138    0.0000 C   0  0  0  0  0  0  0  0  0  0  0  0
    2.0303    8.9101    0.0000 C   0  0  0  0  0  0  0  0  0  0  0  0
    2.7996    7.6225    0.0000 C   0  0  0  0  0  0  0  0  0  0  0  0
    3.1552    6.1652    0.0000 C   0  0  0  0  0  0  0  0  0  0  0  0
    3.0655    4.6679    0.0000 C   0  0  0  0  0  0  0  0  0  0  0  0
    2.5385    3.2636    0.0000 C   0  0  0  0  0  0  0  0  0  0  0  0
    1.6209    2.0770    0.0000 C   0  0  0  0  0  0  0  0  0  0  0  0
    0.3943    1.2135    0.0000 C   0  0  0  0  0  0  0  0  0  0  0  0
    1.2760    0.0000    0.0000 C   0  0  0  0  0  0  0  0  0  0  0  0
    0.3943   -1.2135    0.0000 C   0  0  0  0  0  0  0  0  0  0  0  0
   -1.0323   -0.7500    0.0000 C   0  0  0  0  0  0  0  0  0  0  0  0
   -1.0323    0.7500    0.0000 C   0  0  0  0  0  0  0  0  0  0  0  0
   -2.5321    0.7276    0.0000 C   0  0  0  0  0  0  0  0  0  0  0  0
  1  2  2  0
  2  3  1  0
  3  4  1  0
  4  5  1  0
  5  6  2  0
  6  7  1  0
  7  8  2  0
  8  9  1  0
  9 10  2  0
 10 11  1  0
 11 12  2  0
 12 13  1  0
 13 14  2  0
 14 15  1  0
 15 16  2  0
 16 17  1  0
 17 18  2  0
 18 19  1  0
 19 20  2  0
 20 21  1  0
 21 22  2  0
 22 23  1  0
 23 24  2  0
 24 25  1  0
 25  2  1  0
 24 20  1  0
M  END
>  <Title>  (210) 
idAAIBgen8

$$$$

     RDKit          2D

 17 17  0  0  0  0  0  0  0  0999 V2000
    5.3444    0.0000    0.0000 C   0  0  0  0  0  0  0  0  0  0  0  0
    3.8444    0.0000    0.0000 C   0  0  0  0  0  0  0  0  0  0  0  0
    3.5517   -1.4712    0.0000 C   0  0  0  0  0  0  0  0  0  0  0  0
    2.7184   -2.7184    0.0000 C   0  0  0  0  0  0  0  0  0  0  0  0
    1.4712   -3.5517    0.0000 C   0  0  0  0  0  0  0  0  0  0  0  0
   -0.0000   -3.8444    0.0000 C   0  0  0  0  0  0  0  0  0  0  0  0
   -1.4712   -3.5517    0.0000 C   0  0  0  0  0  0  0  0  0  0  0  0
   -2.7184   -2.7184    0.0000 C   0  0  0  0  0  0  0  0  0  0  0  0
   -3.5517   -1.4712    0.0000 C   0  0  0  0  0  0  0  0  0  0  0  0
   -3.8444    0.0000    0.0000 C   0  0  0  0  0  0  0  0  0  0  0  0
   -3.5517    1.4712    0.0000 C   0  0  0  0  0  0  0  0  0  0  0  0
   -2.7184    2.7184    0.0000 C   0  0  0  0  0  0  0  0  0  0  0  0
   -1.4712    3.5517    0.0000 C   0  0  0  0  0  0  0  0  0  0  0  0
    0.0000    3.8444    0.0000 C   0  0  0  0  0  0  0  0  0  0  0  0
    1.4712    3.5517    0.0000 C   0  0  0  0  0  0  0  0  0  0  0  0
    2.7184    2.7184    0.0000 C   0  0  0  0  0  0  0  0  0  0  0  0
    3.5517    1.4712    0.0000 C   0  0  0  0  0  0  0  0  0  0  0  0
  1  2  1  0
  2  3  2  0
  3  4  1  0
  4  5  2  0
  5  6  2  0
  6  7  1  0
  7  8  1  0
  8  9  2  0
  9 10  1  0
 10 11  2  0
 11 12  1  0
 12 13  2  0
 13 14  1  0
 14 15  2  0
 15 16  1  0
 16 17  2  0
 17  2  1  0
M  END
>  <Title>  (211) 
idAAICgen8

$$$$

     RDKit          2D

 44 48  0  0  0  0  0  0  0  0999 V2000
    6.0663    4.8848    0.0000 C   0  0  0  0  0  0  0  0  0  0  0  0
    4.6805    5.4588    0.0000 O   0  0  0  0  0  0  0  0  0  0  0  0
    3.4905    4.5457    0.0000 C   0  0  0  0  0  0  0  0  0  0  0  0
    3.8787    3.0968    0.0000 C   0  0  0  0  0  0  0  0  0  0  0  0
    3.1287    1.7978    0.0000 C   0  0  0  0  0  0  0  0  0  0  0  0
    1.6798    1.4095    0.0000 C   0  0  0  0  0  0  0  0  0  0  0  0
    2.1929    0.0000    0.0000 C   0  0  0  0  0  0  0  0  0  0  0  0
    1.6798   -1.4095    0.0000 C   0  0  0  0  0  0  0  0  0  0  0  0
    0.3808   -2.1595    0.0000 C   0  0  0  0  0  0  0  0  0  0  0  0
   -1.0964   -1.8991    0.0000 C   0  0  0  0  0  0  0  0  0  0  0  0
   -2.0606   -0.7500    0.0000 C   0  0  0  0  0  0  0  0  0  0  0  0
   -2.0606    0.7500    0.0000 C   0  0  0  0  0  0  0  0  0  0  0  0
   -3.4701    1.2630    0.0000 N   0  0  0  0  0  0  0  0  0  0  0  0
   -4.6192    0.2988    0.0000 C   0  0  0  0  0  0  0  0  0  0  0  0
   -4.3587   -1.1784    0.0000 O   0  0  0  0  0  0  0  0  0  0  0  0
   -6.0288    0.8119    0.0000 N   0  0  0  0  0  0  0  0  0  0  0  0
   -7.1778   -0.1523    0.0000 C   0  0  0  0  0  0  0  0  0  0  0  0
   -7.0732   -1.6486    0.0000 N   0  0  0  0  0  0  0  0  0  0  0  0
   -8.4640   -2.2106    0.0000 N   0  0  0  0  0  0  0  0  0  0  0  0
   -9.4281   -1.0615    0.0000 N   0  0  0  0  0  0  0  0  0  0  0  0
   -8.6333    0.2106    0.0000 N   0  0  0  0  0  0  0  0  0  0  0  0
   -9.1952    1.6014    0.0000 C   0  0  0  0  0  0  0  0  0  0  0  0
   -8.2717    2.7834    0.0000 C   0  0  0  0  0  0  0  0  0  0  0  0
   -8.8336    4.1741    0.0000 C   0  0  0  0  0  0  0  0  0  0  0  0
  -10.3190    4.3829    0.0000 C   0  0  0  0  0  0  0  0  0  0  0  0
  -11.2425    3.2009    0.0000 N   0  0  0  0  0  0  0  0  0  0  0  0
  -10.6806    1.8101    0.0000 C   0  0  0  0  0  0  0  0  0  0  0  0
   -1.0964    1.8991    0.0000 C   0  0  0  0  0  0  0  0  0  0  0  0
    0.3808    2.1595    0.0000 C   0  0  0  0  0  0  0  0  0  0  0  0
   -0.0074    3.6084    0.0000 C   0  0  0  0  0  0  0  0  0  0  0  0
    0.7426    4.9075    0.0000 C   0  0  0  0  0  0  0  0  0  0  0  0
    2.1914    5.2957    0.0000 C   0  0  0  0  0  0  0  0  0  0  0  0
    2.3872    6.7829    0.0000 O   0  0  0  0  0  0  0  0  0  0  0  0
    0.3543    6.3564    0.0000 C   0  0  0  0  0  0  0  0  0  0  0  0
   -0.9447    7.1064    0.0000 C   0  0  0  0  0  0  0  0  0  0  0  0
   -2.3936    6.7181    0.0000 C   0  0  0  0  0  0  0  0  0  0  0  0
   -3.3067    7.9082    0.0000 C   0  0  0  0  0  0  0  0  0  0  0  0
   -3.1436    5.4191    0.0000 C   0  0  0  0  0  0  0  0  0  0  0  0
   -4.6308    5.6149    0.0000 C   0  0  0  0  0  0  0  0  0  0  0  0
   -5.2048    7.0007    0.0000 O   0  0  0  0  0  0  0  0  0  0  0  0
   -5.5439    4.4248    0.0000 N   0  0  0  0  0  0  0  0  0  0  0  0
   -7.0311    4.6206    0.0000 O   0  0  0  0  0  0  0  0  0  0  0  0
   -2.7554    3.9702    0.0000 C   0  0  0  0  0  0  0  0  0  0  0  0
   -1.4563    3.2202    0.0000 C   0  0  0  0  0  0  0  0  0  0  0  0
  1  2  1  0
  2  3  1  0
  3  4  2  0
  4  5  1  0
  5  6  2  0
  6  7  1  0
  7  8  2  0
  8  9  1  0
  9 10  2  0
 10 11  1  0
 11 12  2  0
 12 13  1  0
 13 14  1  0
 14 15  2  0
 14 16  1  0
 16 17  1  0
 17 18  2  0
 18 19  1  0
 19 20  2  0
 20 21  1  0
 21 22  1  0
 22 23  2  0
 23 24  1  0
 24 25  2  0
 25 26  1  0
 26 27  2  0
 12 28  1  0
 28 29  2  0
 29 30  1  0
 30 31  1  0
 31 32  1  0
 32 33  2  0
 31 34  2  0
 34 35  1  0
 35 36  2  0
 36 37  1  0
 36 38  1  0
 38 39  1  0
 39 40  2  0
 39 41  1  0
 41 42  1  0
 38 43  2  0
 43 44  1  0
 32  3  1  0
 29  6  1  0
 44 30  2  0
 21 17  1  0
 27 22  1  0
M  END
>  <Title>  (212) 
idAAIDgen8

$$$$

     RDKit          2D

 54 61  0  0  0  0  0  0  0  0999 V2000
   -6.6244   -7.3109    0.0000 C   0  0  0  0  0  0  0  0  0  0  0  0
   -6.4231   -5.8245    0.0000 C   0  0  0  0  0  0  0  0  0  0  0  0
   -7.6097   -4.9069    0.0000 C   0  0  0  0  0  0  0  0  0  0  0  0
   -7.4084   -3.4205    0.0000 C   0  0  0  0  0  0  0  0  0  0  0  0
   -6.0204   -2.8517    0.0000 C   0  0  0  0  0  0  0  0  0  0  0  0
   -5.8190   -1.3652    0.0000 C   0  0  0  0  0  0  0  0  0  0  0  0
   -7.0057   -0.4477    0.0000 O   0  0  0  0  0  0  0  0  0  0  0  0
   -4.4311   -0.7964    0.0000 N   0  0  0  0  0  0  0  0  0  0  0  0
   -4.2297    0.6900    0.0000 C   0  0  0  0  0  0  0  0  0  0  0  0
   -5.3139    1.7266    0.0000 N   0  0  0  0  0  0  0  0  0  0  0  0
   -4.6631    3.0781    0.0000 N   0  0  0  0  0  0  0  0  0  0  0  0
   -3.1767    2.8767    0.0000 N   0  0  0  0  0  0  0  0  0  0  0  0
   -2.9088    1.4008    0.0000 N   0  0  0  0  0  0  0  0  0  0  0  0
   -1.5574    0.7500    0.0000 C   0  0  0  0  0  0  0  0  0  0  0  0
   -1.5574   -0.7500    0.0000 C   0  0  0  0  0  0  0  0  0  0  0  0
   -0.3846   -1.6852    0.0000 C   0  0  0  0  0  0  0  0  0  0  0  0
    1.0777   -1.3515    0.0000 N   0  0  0  0  0  0  0  0  0  0  0  0
    1.7286    0.0000    0.0000 N   0  0  0  0  0  0  0  0  0  0  0  0
    1.0777    1.3515    0.0000 N   0  0  0  0  0  0  0  0  0  0  0  0
   -0.3846    1.6852    0.0000 N   0  0  0  0  0  0  0  0  0  0  0  0
   -0.7184    3.1476    0.0000 C   0  0  0  0  0  0  0  0  0  0  0  0
   -2.0977    3.7372    0.0000 C   0  0  0  0  0  0  0  0  0  0  0  0
   -1.9633    5.2311    0.0000 C   0  0  0  0  0  0  0  0  0  0  0  0
   -0.5009    5.5649    0.0000 C   0  0  0  0  0  0  0  0  0  0  0  0
    0.0887    6.9442    0.0000 C   0  0  0  0  0  0  0  0  0  0  0  0
    1.5511    7.2780    0.0000 N   0  0  0  0  0  0  0  0  0  0  0  0
    1.6855    8.7719    0.0000 N   0  0  0  0  0  0  0  0  0  0  0  0
    0.3062    9.3615    0.0000 N   0  0  0  0  0  0  0  0  0  0  0  0
   -0.6807    8.2319    0.0000 N   0  0  0  0  0  0  0  0  0  0  0  0
   -2.1746    8.3663    0.0000 C   0  0  0  0  0  0  0  0  0  0  0  0
   -2.9440    9.6540    0.0000 C   0  0  0  0  0  0  0  0  0  0  0  0
   -4.4064    9.3202    0.0000 C   0  0  0  0  0  0  0  0  0  0  0  0
   -4.5408    7.8263    0.0000 C   0  0  0  0  0  0  0  0  0  0  0  0
   -5.8285    7.0569    0.0000 C   0  0  0  0  0  0  0  0  0  0  0  0
   -5.8061    5.5571    0.0000 O   0  0  0  0  0  0  0  0  0  0  0  0
   -7.1386    7.7874    0.0000 N   0  0  0  0  0  0  0  0  0  0  0  0
   -8.4263    7.0180    0.0000 C   0  0  0  0  0  0  0  0  0  0  0  0
   -8.5608    5.5241    0.0000 N   0  0  0  0  0  0  0  0  0  0  0  0
  -10.0231    5.1903    0.0000 N   0  0  0  0  0  0  0  0  0  0  0  0
  -10.7925    6.4780    0.0000 N   0  0  0  0  0  0  0  0  0  0  0  0
   -9.8056    7.6076    0.0000 N   0  0  0  0  0  0  0  0  0  0  0  0
  -10.1394    9.0700    0.0000 C   0  0  0  0  0  0  0  0  0  0  0  0
   -9.0398   10.0902    0.0000 C   0  0  0  0  0  0  0  0  0  0  0  0
   -9.3736   11.5526    0.0000 C   0  0  0  0  0  0  0  0  0  0  0  0
  -10.8069   11.9948    0.0000 C   0  0  0  0  0  0  0  0  0  0  0  0
  -11.9065   10.9745    0.0000 C   0  0  0  0  0  0  0  0  0  0  0  0
  -11.5727    9.5121    0.0000 C   0  0  0  0  0  0  0  0  0  0  0  0
   -3.1615    7.2367    0.0000 C   0  0  0  0  0  0  0  0  0  0  0  0
   -2.8278    5.7743    0.0000 O   0  0  0  0  0  0  0  0  0  0  0  0
    0.2685    4.2772    0.0000 C   0  0  0  0  0  0  0  0  0  0  0  0
    1.7624    4.1428    0.0000 O   0  0  0  0  0  0  0  0  0  0  0  0
   -4.8338   -3.7693    0.0000 N   0  0  0  0  0  0  0  0  0  0  0  0
   -5.0351   -5.2557    0.0000 C   0  0  0  0  0  0  0  0  0  0  0  0
   -3.8485   -6.1733    0.0000 O   0  0  0  0  0  0  0  0  0  0  0  0
  1  2  1  0
  2  3  2  0
  3  4  1  0
  4  5  2  0
  5  6  1  0
  6  7  2  0
  6  8  1  0
  8  9  1  0
  9 10  2  0
 10 11  1  0
 11 12  2  0
 12 13  1  0
 13 14  1  0
 14 15  2  0
 15 16  1  0
 16 17  2  0
 17 18  1  0
 18 19  2  0
 19 20  1  0
 20 21  1  0
 21 22  2  0
 22 23  1  0
 23 24  2  0
 24 25  1  0
 25 26  2  0
 26 27  1  0
 27 28  2  0
 28 29  1  0
 29 30  1  0
 30 31  2  0
 31 32  1  0
 32 33  2  0
 33 34  1  0
 34 35  2  0
 34 36  1  0
 36 37  1  0
 37 38  2  0
 38 39  1  0
 39 40  2  0
 40 41  1  0
 41 42  1  0
 42 43  2  0
 43 44  1  0
 44 45  2  0
 45 46  1  0
 46 47  2  0
 33 48  1  0
 48 49  2  0
 24 50  1  0
 50 51  2  0
  5 52  1  0
 52 53  1  0
 53 54  2  0
 53  2  1  0
 13  9  1  0
 20 14  1  0
 50 21  1  0
 29 25  1  0
 48 30  1  0
 41 37  1  0
 47 42  1  0
M  END
>  <Title>  (213) 
idAAIEgen8

$$$$

     RDKit          2D

 15 16  0  0  0  0  0  0  0  0999 V2000
    2.8449    6.6264    0.0000 C   0  0  0  0  0  0  0  0  0  0  0  0
    1.4115    6.1843    0.0000 O   0  0  0  0  0  0  0  0  0  0  0  0
    1.0777    4.7219    0.0000 C   0  0  0  0  0  0  0  0  0  0  0  0
    2.2505    3.7867    0.0000 C   0  0  0  0  0  0  0  0  0  0  0  0
    2.2505    2.2867    0.0000 C   0  0  0  0  0  0  0  0  0  0  0  0
    1.0777    1.3515    0.0000 C   0  0  0  0  0  0  0  0  0  0  0  0
    1.7286    0.0000    0.0000 C   0  0  0  0  0  0  0  0  0  0  0  0
    1.0777   -1.3515    0.0000 C   0  0  0  0  0  0  0  0  0  0  0  0
   -0.3846   -1.6852    0.0000 C   0  0  0  0  0  0  0  0  0  0  0  0
   -1.5574   -0.7500    0.0000 C   0  0  0  0  0  0  0  0  0  0  0  0
   -1.5574    0.7500    0.0000 C   0  0  0  0  0  0  0  0  0  0  0  0
   -0.3846    1.6852    0.0000 C   0  0  0  0  0  0  0  0  0  0  0  0
   -1.0355    3.0367    0.0000 C   0  0  0  0  0  0  0  0  0  0  0  0
   -2.5355    3.0367    0.0000 O   0  0  0  0  0  0  0  0  0  0  0  0
   -0.3846    4.3881    0.0000 N   0  0  0  0  0  0  0  0  0  0  0  0
  1  2  1  0
  2  3  1  0
  3  4  2  0
  4  5  1  0
  5  6  2  0
  6  7  1  0
  7  8  2  0
  8  9  1  0
  9 10  2  0
 10 11  1  0
 11 12  2  0
 12 13  1  0
 13 14  2  0
 13 15  1  0
 15  3  1  0
 12  6  1  0
M  END
>  <Title>  (214) 
idAAIFgen8

$$$$

     RDKit          2D

 22 22  0  0  0  0  0  0  0  0999 V2000
    8.0691   -1.2990    0.0000 C   0  0  0  0  0  0  0  0  0  0  0  0
    6.5691   -1.2990    0.0000 C   0  0  0  0  0  0  0  0  0  0  0  0
    5.8191   -2.5981    0.0000 O   0  0  0  0  0  0  0  0  0  0  0  0
    5.8191    0.0000    0.0000 O   0  0  0  0  0  0  0  0  0  0  0  0
    4.3191    0.0000    0.0000 C   0  0  0  0  0  0  0  0  0  0  0  0
    4.0586   -1.4772    0.0000 C   0  0  0  0  0  0  0  0  0  0  0  0
    3.3086   -2.7762    0.0000 C   0  0  0  0  0  0  0  0  0  0  0  0
    2.1595   -3.7404    0.0000 C   0  0  0  0  0  0  0  0  0  0  0  0
    0.7500   -4.2535    0.0000 C   0  0  0  0  0  0  0  0  0  0  0  0
   -0.7500   -4.2535    0.0000 C   0  0  0  0  0  0  0  0  0  0  0  0
   -2.1595   -3.7404    0.0000 C   0  0  0  0  0  0  0  0  0  0  0  0
   -3.3086   -2.7762    0.0000 C   0  0  0  0  0  0  0  0  0  0  0  0
   -4.0586   -1.4772    0.0000 C   0  0  0  0  0  0  0  0  0  0  0  0
   -4.3191    0.0000    0.0000 C   0  0  0  0  0  0  0  0  0  0  0  0
   -4.0586    1.4772    0.0000 C   0  0  0  0  0  0  0  0  0  0  0  0
   -3.3086    2.7762    0.0000 C   0  0  0  0  0  0  0  0  0  0  0  0
   -2.1595    3.7404    0.0000 C   0  0  0  0  0  0  0  0  0  0  0  0
   -0.7500    4.2535    0.0000 C   0  0  0  0  0  0  0  0  0  0  0  0
    0.7500    4.2535    0.0000 C   0  0  0  0  0  0  0  0  0  0  0  0
    2.1595    3.7404    0.0000 C   0  0  0  0  0  0  0  0  0  0  0  0
    3.3086    2.7762    0.0000 C   0  0  0  0  0  0  0  0  0  0  0  0
    4.0586    1.4772    0.0000 C   0  0  0  0  0  0  0  0  0  0  0  0
  1  2  1  0
  2  3  2  0
  2  4  1  0
  4  5  1  0
  5  6  2  0
  6  7  1  0
  7  8  2  0
  8  9  1  0
  9 10  2  0
 10 11  1  0
 11 12  2  0
 12 13  1  0
 13 14  2  0
 14 15  1  0
 15 16  2  0
 16 17  1  0
 17 18  2  0
 18 19  1  0
 19 20  2  0
 20 21  1  0
 21 22  2  0
 22  5  1  0
M  END
>  <Title>  (215) 
idAAIGgen8

$$$$

     RDKit          2D

 37 42  0  0  0  0  0  0  0  0999 V2000
    3.0000    0.0000    0.0000 C   0  0  0  0  0  0  0  0  0  0  0  0
    1.5000    0.0000    0.0000 C   0  0  0  0  0  0  0  0  0  0  0  0
    0.7500    1.2990    0.0000 C   0  0  0  0  0  0  0  0  0  0  0  0
   -0.7500    1.2990    0.0000 C   0  0  0  0  0  0  0  0  0  0  0  0
   -1.5000    0.0000    0.0000 C   0  0  0  0  0  0  0  0  0  0  0  0
   -3.0000    0.0000    0.0000 C   0  0  0  0  0  0  0  0  0  0  0  0
   -3.8817   -1.2135    0.0000 N   0  0  0  0  0  0  0  0  0  0  0  0
   -5.3083   -0.7500    0.0000 N   0  0  0  0  0  0  0  0  0  0  0  0
   -5.3083    0.7500    0.0000 N   0  0  0  0  0  0  0  0  0  0  0  0
   -3.8817    1.2135    0.0000 N   0  0  0  0  0  0  0  0  0  0  0  0
   -3.4182    2.6401    0.0000 C   0  0  0  0  0  0  0  0  0  0  0  0
   -4.2998    3.8536    0.0000 C   0  0  0  0  0  0  0  0  0  0  0  0
   -3.4182    5.0672    0.0000 C   0  0  0  0  0  0  0  0  0  0  0  0
   -1.9916    4.6036    0.0000 C   0  0  0  0  0  0  0  0  0  0  0  0
   -0.7780    5.4853    0.0000 N   0  0  0  0  0  0  0  0  0  0  0  0
   -0.9348    6.9771    0.0000 C   0  0  0  0  0  0  0  0  0  0  0  0
   -2.2339    7.7271    0.0000 N   0  0  0  0  0  0  0  0  0  0  0  0
   -1.9220    9.1943    0.0000 N   0  0  0  0  0  0  0  0  0  0  0  0
   -0.4302    9.3511    0.0000 N   0  0  0  0  0  0  0  0  0  0  0  0
    0.1799    7.9808    0.0000 N   0  0  0  0  0  0  0  0  0  0  0  0
    1.6471    7.6689    0.0000 C   0  0  0  0  0  0  0  0  0  0  0  0
    2.1106    6.2423    0.0000 C   0  0  0  0  0  0  0  0  0  0  0  0
    3.5779    5.9305    0.0000 C   0  0  0  0  0  0  0  0  0  0  0  0
    4.5815    7.0452    0.0000 C   0  0  0  0  0  0  0  0  0  0  0  0
    6.0488    6.7333    0.0000 C   0  0  0  0  0  0  0  0  0  0  0  0
    6.5123    5.3067    0.0000 C   0  0  0  0  0  0  0  0  0  0  0  0
    7.9795    4.9949    0.0000 C   0  0  0  0  0  0  0  0  0  0  0  0
    8.9832    6.1096    0.0000 C   0  0  0  0  0  0  0  0  0  0  0  0
    8.5197    7.5362    0.0000 C   0  0  0  0  0  0  0  0  0  0  0  0
    7.0525    7.8480    0.0000 C   0  0  0  0  0  0  0  0  0  0  0  0
    4.1180    8.4718    0.0000 C   0  0  0  0  0  0  0  0  0  0  0  0
    2.6508    8.7836    0.0000 C   0  0  0  0  0  0  0  0  0  0  0  0
   -1.9916    3.1036    0.0000 C   0  0  0  0  0  0  0  0  0  0  0  0
   -0.7780    2.2220    0.0000 O   0  0  0  0  0  0  0  0  0  0  0  0
   -0.7500   -1.2990    0.0000 C   0  0  0  0  0  0  0  0  0  0  0  0
   -1.5000   -2.5981    0.0000 O   0  0  0  0  0  0  0  0  0  0  0  0
    0.7500   -1.2990    0.0000 N   0  0  0  0  0  0  0  0  0  0  0  0
  1  2  1  0
  2  3  2  0
  3  4  1  0
  4  5  2  0
  5  6  1  0
  6  7  2  0
  7  8  1  0
  8  9  2  0
  9 10  1  0
 10 11  1  0
 11 12  2  0
 12 13  1  0
 13 14  2  0
 14 15  1  0
 15 16  1  0
 16 17  2  0
 17 18  1  0
 18 19  2  0
 19 20  1  0
 20 21  1  0
 21 22  2  0
 22 23  1  0
 23 24  2  0
 24 25  1  0
 25 26  2  0
 26 27  1  0
 27 28  2  0
 28 29  1  0
 29 30  2  0
 24 31  1  0
 31 32  2  0
 14 33  1  0
 33 34  2  0
  5 35  1  0
 35 36  2  0
 35 37  1  0
 37  2  1  0
 10  6  1  0
 33 11  1  0
 20 16  1  0
 32 21  1  0
 30 25  1  0
M  END
>  <Title>  (216) 
idAAIHgen8

$$$$

     RDKit          2D

 14 14  0  0  0  0  0  0  0  0999 V2000
    4.3978    0.0000    0.0000 O   0  0  0  0  0  0  0  0  0  0  0  0
    2.8978    0.0000    0.0000 C   0  0  0  0  0  0  0  0  0  0  0  0
    2.5095   -1.4489    0.0000 C   0  0  0  0  0  0  0  0  0  0  0  0
    1.4489   -2.5095    0.0000 C   0  0  0  0  0  0  0  0  0  0  0  0
   -0.0000   -2.8978    0.0000 C   0  0  0  0  0  0  0  0  0  0  0  0
   -1.4489   -2.5095    0.0000 C   0  0  0  0  0  0  0  0  0  0  0  0
   -2.5095   -1.4489    0.0000 C   0  0  0  0  0  0  0  0  0  0  0  0
   -2.8978    0.0000    0.0000 C   0  0  0  0  0  0  0  0  0  0  0  0
   -2.5095    1.4489    0.0000 C   0  0  0  0  0  0  0  0  0  0  0  0
   -1.4489    2.5095    0.0000 C   0  0  0  0  0  0  0  0  0  0  0  0
    0.0000    2.8978    0.0000 C   0  0  0  0  0  0  0  0  0  0  0  0
    1.4489    2.5095    0.0000 C   0  0  0  0  0  0  0  0  0  0  0  0
    2.5095    1.4489    0.0000 C   0  0  0  0  0  0  0  0  0  0  0  0
    3.8086    2.1989    0.0000 O   0  0  0  0  0  0  0  0  0  0  0  0
  1  2  1  0
  2  3  2  0
  3  4  1  0
  4  5  2  0
  5  6  1  0
  6  7  2  0
  7  8  1  0
  8  9  2  0
  9 10  1  0
 10 11  2  0
 11 12  1  0
 12 13  2  0
 13 14  1  0
 13  2  1  0
M  END
>  <Title>  (217) 
idAAIIgen8

$$$$

     RDKit          2D

 35 39  0  0  0  0  0  0  0  0999 V2000
  -10.1624    4.2767    0.0000 C   0  0  0  0  0  0  0  0  0  0  0  0
   -8.9488    3.3950    0.0000 C   0  0  0  0  0  0  0  0  0  0  0  0
   -9.1056    1.9033    0.0000 C   0  0  0  0  0  0  0  0  0  0  0  0
   -7.8921    1.0216    0.0000 C   0  0  0  0  0  0  0  0  0  0  0  0
   -6.5218    1.6317    0.0000 C   0  0  0  0  0  0  0  0  0  0  0  0
   -5.3083    0.7500    0.0000 C   0  0  0  0  0  0  0  0  0  0  0  0
   -5.3083   -0.7500    0.0000 N   0  0  0  0  0  0  0  0  0  0  0  0
   -3.8817   -1.2135    0.0000 N   0  0  0  0  0  0  0  0  0  0  0  0
   -3.0000    0.0000    0.0000 N   0  0  0  0  0  0  0  0  0  0  0  0
   -3.8817    1.2135    0.0000 N   0  0  0  0  0  0  0  0  0  0  0  0
   -3.4182    2.6401    0.0000 C   0  0  0  0  0  0  0  0  0  0  0  0
   -4.2998    3.8536    0.0000 C   0  0  0  0  0  0  0  0  0  0  0  0
   -3.4182    5.0672    0.0000 C   0  0  0  0  0  0  0  0  0  0  0  0
   -1.9916    4.6036    0.0000 C   0  0  0  0  0  0  0  0  0  0  0  0
   -0.7780    5.4853    0.0000 C   0  0  0  0  0  0  0  0  0  0  0  0
   -0.7780    6.9853    0.0000 C   0  0  0  0  0  0  0  0  0  0  0  0
    0.6485    7.4488    0.0000 N   0  0  0  0  0  0  0  0  0  0  0  0
    1.5302    6.2353    0.0000 N   0  0  0  0  0  0  0  0  0  0  0  0
    0.6485    5.0218    0.0000 N   0  0  0  0  0  0  0  0  0  0  0  0
    1.1121    3.5952    0.0000 C   0  0  0  0  0  0  0  0  0  0  0  0
    0.1084    2.4805    0.0000 C   0  0  0  0  0  0  0  0  0  0  0  0
    0.5719    1.0539    0.0000 C   0  0  0  0  0  0  0  0  0  0  0  0
    2.0391    0.7420    0.0000 C   0  0  0  0  0  0  0  0  0  0  0  0
    2.5026   -0.6846    0.0000 C   0  0  0  0  0  0  0  0  0  0  0  0
    1.4989   -1.7993    0.0000 O   0  0  0  0  0  0  0  0  0  0  0  0
    3.9699   -0.9964    0.0000 N   0  0  0  0  0  0  0  0  0  0  0  0
    4.4334   -2.4230    0.0000 O   0  0  0  0  0  0  0  0  0  0  0  0
    3.0428    1.8568    0.0000 N   0  0  0  0  0  0  0  0  0  0  0  0
    2.5793    3.2833    0.0000 C   0  0  0  0  0  0  0  0  0  0  0  0
    3.5830    4.3981    0.0000 O   0  0  0  0  0  0  0  0  0  0  0  0
   -1.9916    3.1036    0.0000 C   0  0  0  0  0  0  0  0  0  0  0  0
   -0.7780    2.2220    0.0000 O   0  0  0  0  0  0  0  0  0  0  0  0
   -6.3650    3.1235    0.0000 N   0  0  0  0  0  0  0  0  0  0  0  0
   -7.5785    4.0051    0.0000 C   0  0  0  0  0  0  0  0  0  0  0  0
   -7.4217    5.4969    0.0000 O   0  0  0  0  0  0  0  0  0  0  0  0
  1  2  1  0
  2  3  2  0
  3  4  1  0
  4  5  2  0
  5  6  1  0
  6  7  2  0
  7  8  1  0
  8  9  2  0
  9 10  1  0
 10 11  1  0
 11 12  2  0
 12 13  1  0
 13 14  2  0
 14 15  1  0
 15 16  2  0
 16 17  1  0
 17 18  2  0
 18 19  1  0
 19 20  1  0
 20 21  2  0
 21 22  1  0
 22 23  2  0
 23 24  1  0
 24 25  2  0
 24 26  1  0
 26 27  1  0
 23 28  1  0
 28 29  1  0
 29 30  2  0
 14 31  1  0
 31 32  2  0
  5 33  1  0
 33 34  1  0
 34 35  2  0
 34  2  1  0
 10  6  1  0
 31 11  1  0
 19 15  1  0
 29 20  1  0
M  END
>  <Title>  (218) 
idAAIJgen8

$$$$

     RDKit          2D

 29 32  0  0  0  0  0  0  0  0999 V2000
   -5.9611    3.2721    0.0000 C   0  0  0  0  0  0  0  0  0  0  0  0
   -5.0659    4.4756    0.0000 C   0  0  0  0  0  0  0  0  0  0  0  0
   -3.5931    4.1913    0.0000 C   0  0  0  0  0  0  0  0  0  0  0  0
   -2.4525    5.1654    0.0000 C   0  0  0  0  0  0  0  0  0  0  0  0
   -2.5029    6.6646    0.0000 C   0  0  0  0  0  0  0  0  0  0  0  0
   -1.1741    7.3605    0.0000 C   0  0  0  0  0  0  0  0  0  0  0  0
   -0.9561    8.8446    0.0000 N   0  0  0  0  0  0  0  0  0  0  0  0
    0.5227    9.0958    0.0000 N   0  0  0  0  0  0  0  0  0  0  0  0
    1.2186    7.7671    0.0000 N   0  0  0  0  0  0  0  0  0  0  0  0
    0.1699    6.6946    0.0000 N   0  0  0  0  0  0  0  0  0  0  0  0
    0.4212    5.2158    0.0000 C   0  0  0  0  0  0  0  0  0  0  0  0
    1.8836    4.8820    0.0000 N   0  0  0  0  0  0  0  0  0  0  0  0
    2.6816    3.6119    0.0000 C   0  0  0  0  0  0  0  0  0  0  0  0
    4.1604    3.8632    0.0000 O   0  0  0  0  0  0  0  0  0  0  0  0
    2.3478    2.1495    0.0000 C   0  0  0  0  0  0  0  0  0  0  0  0
    3.5712    1.2815    0.0000 C   0  0  0  0  0  0  0  0  0  0  0  0
    1.0777    1.3515    0.0000 C   0  0  0  0  0  0  0  0  0  0  0  0
    1.7286    0.0000    0.0000 C   0  0  0  0  0  0  0  0  0  0  0  0
    1.0777   -1.3515    0.0000 C   0  0  0  0  0  0  0  0  0  0  0  0
   -0.3846   -1.6852    0.0000 C   0  0  0  0  0  0  0  0  0  0  0  0
   -1.5574   -0.7500    0.0000 C   0  0  0  0  0  0  0  0  0  0  0  0
   -1.5574    0.7500    0.0000 C   0  0  0  0  0  0  0  0  0  0  0  0
   -0.3846    1.6852    0.0000 C   0  0  0  0  0  0  0  0  0  0  0  0
   -1.1827    2.9553    0.0000 C   0  0  0  0  0  0  0  0  0  0  0  0
   -2.6615    2.7041    0.0000 O   0  0  0  0  0  0  0  0  0  0  0  0
   -0.8489    4.4177    0.0000 N   0  0  0  0  0  0  0  0  0  0  0  0
   -3.7065    7.5598    0.0000 N   0  0  0  0  0  0  0  0  0  0  0  0
   -5.1568    7.1770    0.0000 C   0  0  0  0  0  0  0  0  0  0  0  0
   -5.7618    5.8044    0.0000 N   0  0  0  0  0  0  0  0  0  0  0  0
  1  2  1  0
  2  3  2  0
  3  4  1  0
  4  5  2  0
  5  6  1  0
  6  7  2  0
  7  8  1  0
  8  9  2  0
  9 10  1  0
 10 11  1  0
 11 12  1  0
 12 13  1  0
 13 14  2  0
 13 15  1  0
 15 16  1  0
 15 17  1  0
 17 18  2  0
 18 19  1  0
 19 20  2  0
 20 21  1  0
 21 22  1  0
 22 23  1  0
 23 24  1  0
 24 25  2  0
 24 26  1  0
  5 27  1  0
 27 28  1  0
 28 29  1  0
 29  2  1  0
 10  6  1  0
 26 11  1  0
 23 17  1  0
M  END
>  <Title>  (219) 
idAAIKgen8

$$$$

     RDKit          2D

 44 50  0  0  0  0  0  0  0  0999 V2000
    3.0000    0.0000    0.0000 C   0  0  0  0  0  0  0  0  0  0  0  0
    1.5000    0.0000    0.0000 C   0  0  0  0  0  0  0  0  0  0  0  0
    0.7500   -1.2990    0.0000 C   0  0  0  0  0  0  0  0  0  0  0  0
   -0.7500   -1.2990    0.0000 C   0  0  0  0  0  0  0  0  0  0  0  0
   -1.5000    0.0000    0.0000 C   0  0  0  0  0  0  0  0  0  0  0  0
   -3.0000    0.0000    0.0000 C   0  0  0  0  0  0  0  0  0  0  0  0
   -3.7500   -1.2990    0.0000 O   0  0  0  0  0  0  0  0  0  0  0  0
   -3.7500    1.2990    0.0000 N   0  0  0  0  0  0  0  0  0  0  0  0
   -5.2500    1.2990    0.0000 C   0  0  0  0  0  0  0  0  0  0  0  0
   -6.1317    0.0855    0.0000 N   0  0  0  0  0  0  0  0  0  0  0  0
   -7.5583    0.5490    0.0000 N   0  0  0  0  0  0  0  0  0  0  0  0
   -7.5583    2.0490    0.0000 N   0  0  0  0  0  0  0  0  0  0  0  0
   -6.1317    2.5126    0.0000 N   0  0  0  0  0  0  0  0  0  0  0  0
   -5.6682    3.9391    0.0000 C   0  0  0  0  0  0  0  0  0  0  0  0
   -4.2009    4.2510    0.0000 C   0  0  0  0  0  0  0  0  0  0  0  0
   -3.7374    5.6776    0.0000 C   0  0  0  0  0  0  0  0  0  0  0  0
   -2.2702    5.9895    0.0000 C   0  0  0  0  0  0  0  0  0  0  0  0
   -4.7411    6.7923    0.0000 C   0  0  0  0  0  0  0  0  0  0  0  0
   -6.2083    6.4805    0.0000 C   0  0  0  0  0  0  0  0  0  0  0  0
   -6.6718    5.0539    0.0000 C   0  0  0  0  0  0  0  0  0  0  0  0
   -8.1391    4.7420    0.0000 N   0  0  0  0  0  0  0  0  0  0  0  0
   -8.7492    3.3717    0.0000 N   0  0  0  0  0  0  0  0  0  0  0  0
  -10.2410    3.5285    0.0000 N   0  0  0  0  0  0  0  0  0  0  0  0
  -10.5528    4.9957    0.0000 N   0  0  0  0  0  0  0  0  0  0  0  0
   -9.2538    5.7457    0.0000 C   0  0  0  0  0  0  0  0  0  0  0  0
   -9.0970    7.2375    0.0000 N   0  0  0  0  0  0  0  0  0  0  0  0
   -7.9313    8.1815    0.0000 C   0  0  0  0  0  0  0  0  0  0  0  0
   -8.8753    9.3472    0.0000 C   0  0  0  0  0  0  0  0  0  0  0  0
   -8.7185   10.8390    0.0000 N   0  0  0  0  0  0  0  0  0  0  0  0
   -7.3481   11.4491    0.0000 C   0  0  0  0  0  0  0  0  0  0  0  0
   -6.0491   10.6991    0.0000 N   0  0  0  0  0  0  0  0  0  0  0  0
   -4.9344   11.7028    0.0000 N   0  0  0  0  0  0  0  0  0  0  0  0
   -5.5445   13.0731    0.0000 N   0  0  0  0  0  0  0  0  0  0  0  0
   -7.0363   12.9163    0.0000 N   0  0  0  0  0  0  0  0  0  0  0  0
   -8.0400   14.0310    0.0000 C   0  0  0  0  0  0  0  0  0  0  0  0
   -7.5764   15.4576    0.0000 C   0  0  0  0  0  0  0  0  0  0  0  0
   -8.5801   16.5723    0.0000 C   0  0  0  0  0  0  0  0  0  0  0  0
  -10.0474   16.2604    0.0000 C   0  0  0  0  0  0  0  0  0  0  0  0
  -10.5109   14.8339    0.0000 C   0  0  0  0  0  0  0  0  0  0  0  0
   -9.5072   13.7191    0.0000 C   0  0  0  0  0  0  0  0  0  0  0  0
  -10.0410    8.4032    0.0000 C   0  0  0  0  0  0  0  0  0  0  0  0
  -11.5328    8.5600    0.0000 O   0  0  0  0  0  0  0  0  0  0  0  0
   -0.7500    1.2990    0.0000 N   0  0  0  0  0  0  0  0  0  0  0  0
    0.7500    1.2990    0.0000 C   0  0  0  0  0  0  0  0  0  0  0  0
  1  2  1  0
  2  3  2  0
  3  4  1  0
  4  5  2  0
  5  6  1  0
  6  7  2  0
  6  8  1  0
  8  9  1  0
  9 10  2  0
 10 11  1  0
 11 12  2  0
 12 13  1  0
 13 14  1  0
 14 15  2  0
 15 16  1  0
 16 17  1  0
 16 18  2  0
 18 19  1  0
 19 20  2  0
 20 21  1  0
 21 22  1  0
 22 23  2  0
 23 24  1  0
 24 25  2  0
 25 26  1  0
 26 27  1  0
 27 28  2  0
 28 29  1  0
 29 30  1  0
 30 31  2  0
 31 32  1  0
 32 33  2  0
 33 34  1  0
 34 35  1  0
 35 36  2  0
 36 37  1  0
 37 38  2  0
 38 39  1  0
 39 40  2  0
 28 41  1  0
 41 42  2  0
  5 43  1  0
 43 44  1  0
 44  2  1  0
 13  9  1  0
 20 14  1  0
 25 21  1  0
 41 26  1  0
 34 30  1  0
 40 35  1  0
M  END
>  <Title>  (220) 
idAAILgen8

$$$$

     RDKit          2D

 66 75  0  0  0  0  0  0  0  0999 V2000
   16.7190    0.3261    0.0000 C   0  0  0  0  0  0  0  0  0  0  0  0
   15.5533   -0.6178    0.0000 C   0  0  0  0  0  0  0  0  0  0  0  0
   15.7879   -2.0994    0.0000 C   0  0  0  0  0  0  0  0  0  0  0  0
   14.6222   -3.0434    0.0000 C   0  0  0  0  0  0  0  0  0  0  0  0
   13.2218   -2.5058    0.0000 C   0  0  0  0  0  0  0  0  0  0  0  0
   12.0561   -3.4498    0.0000 C   0  0  0  0  0  0  0  0  0  0  0  0
   12.1346   -4.9477    0.0000 N   0  0  0  0  0  0  0  0  0  0  0  0
   10.7343   -5.4853    0.0000 N   0  0  0  0  0  0  0  0  0  0  0  0
    9.7903   -4.3196    0.0000 N   0  0  0  0  0  0  0  0  0  0  0  0
   10.6072   -3.0616    0.0000 N   0  0  0  0  0  0  0  0  0  0  0  0
   10.0697   -1.6612    0.0000 C   0  0  0  0  0  0  0  0  0  0  0  0
   11.0137   -0.4955    0.0000 C   0  0  0  0  0  0  0  0  0  0  0  0
   10.4761    0.9049    0.0000 C   0  0  0  0  0  0  0  0  0  0  0  0
    8.9946    1.1396    0.0000 C   0  0  0  0  0  0  0  0  0  0  0  0
    8.4570    2.5399    0.0000 C   0  0  0  0  0  0  0  0  0  0  0  0
    9.4010    3.7056    0.0000 C   0  0  0  0  0  0  0  0  0  0  0  0
    8.8635    5.1060    0.0000 C   0  0  0  0  0  0  0  0  0  0  0  0
    7.3819    5.3407    0.0000 C   0  0  0  0  0  0  0  0  0  0  0  0
    6.4379    4.1749    0.0000 C   0  0  0  0  0  0  0  0  0  0  0  0
    6.9755    2.7746    0.0000 C   0  0  0  0  0  0  0  0  0  0  0  0
    8.0506   -0.0262    0.0000 C   0  0  0  0  0  0  0  0  0  0  0  0
    8.5881   -1.4265    0.0000 C   0  0  0  0  0  0  0  0  0  0  0  0
    7.6442   -2.5923    0.0000 C   0  0  0  0  0  0  0  0  0  0  0  0
    6.1626   -2.3576    0.0000 C   0  0  0  0  0  0  0  0  0  0  0  0
    5.2187   -3.5233    0.0000 C   0  0  0  0  0  0  0  0  0  0  0  0
    5.7562   -4.9237    0.0000 C   0  0  0  0  0  0  0  0  0  0  0  0
    4.8122   -6.0894    0.0000 C   0  0  0  0  0  0  0  0  0  0  0  0
    5.3498   -7.4898    0.0000 O   0  0  0  0  0  0  0  0  0  0  0  0
    3.3307   -5.8548    0.0000 N   0  0  0  0  0  0  0  0  0  0  0  0
    2.3867   -7.0205    0.0000 C   0  0  0  0  0  0  0  0  0  0  0  0
    2.7749   -8.4694    0.0000 N   0  0  0  0  0  0  0  0  0  0  0  0
    1.5169   -9.2863    0.0000 N   0  0  0  0  0  0  0  0  0  0  0  0
    0.3512   -8.3423    0.0000 N   0  0  0  0  0  0  0  0  0  0  0  0
    0.8888   -6.9420    0.0000 N   0  0  0  0  0  0  0  0  0  0  0  0
    0.0718   -5.6840    0.0000 C   0  0  0  0  0  0  0  0  0  0  0  0
    0.6094   -4.2836    0.0000 N   0  0  0  0  0  0  0  0  0  0  0  0
   -0.5564   -3.3396    0.0000 N   0  0  0  0  0  0  0  0  0  0  0  0
   -1.8144   -4.1566    0.0000 N   0  0  0  0  0  0  0  0  0  0  0  0
   -1.4261   -5.6055    0.0000 N   0  0  0  0  0  0  0  0  0  0  0  0
   -2.3701   -6.7712    0.0000 C   0  0  0  0  0  0  0  0  0  0  0  0
   -1.8326   -8.1716    0.0000 C   0  0  0  0  0  0  0  0  0  0  0  0
   -2.7765   -9.3373    0.0000 C   0  0  0  0  0  0  0  0  0  0  0  0
   -4.2581   -9.1026    0.0000 C   0  0  0  0  0  0  0  0  0  0  0  0
   -4.7956   -7.7022    0.0000 C   0  0  0  0  0  0  0  0  0  0  0  0
   -3.8516   -6.5365    0.0000 C   0  0  0  0  0  0  0  0  0  0  0  0
   -4.3892   -5.1362    0.0000 C   0  0  0  0  0  0  0  0  0  0  0  0
   -5.8887   -5.0969    0.0000 C   0  0  0  0  0  0  0  0  0  0  0  0
   -6.9212   -4.0088    0.0000 C   0  0  0  0  0  0  0  0  0  0  0  0
   -6.8820   -2.5093    0.0000 C   0  0  0  0  0  0  0  0  0  0  0  0
   -8.2523   -1.8992    0.0000 C   0  0  0  0  0  0  0  0  0  0  0  0
   -8.4091   -0.4075    0.0000 O   0  0  0  0  0  0  0  0  0  0  0  0
   -9.4658   -2.7809    0.0000 N   0  0  0  0  0  0  0  0  0  0  0  0
  -10.8361   -2.1708    0.0000 C   0  0  0  0  0  0  0  0  0  0  0  0
  -12.0496   -3.0525    0.0000 C   0  0  0  0  0  0  0  0  0  0  0  0
  -13.4200   -2.4424    0.0000 C   0  0  0  0  0  0  0  0  0  0  0  0
  -13.5767   -0.9506    0.0000 C   0  0  0  0  0  0  0  0  0  0  0  0
  -12.3632   -0.0689    0.0000 C   0  0  0  0  0  0  0  0  0  0  0  0
  -10.9929   -0.6790    0.0000 C   0  0  0  0  0  0  0  0  0  0  0  0
   -5.7939   -1.4768    0.0000 C   0  0  0  0  0  0  0  0  0  0  0  0
   -4.2944   -1.5161    0.0000 C   0  0  0  0  0  0  0  0  0  0  0  0
   -3.2619   -2.6041    0.0000 C   0  0  0  0  0  0  0  0  0  0  0  0
   -3.3011   -4.1036    0.0000 C   0  0  0  0  0  0  0  0  0  0  0  0
    7.2377   -5.1583    0.0000 C   0  0  0  0  0  0  0  0  0  0  0  0
    8.1817   -3.9926    0.0000 C   0  0  0  0  0  0  0  0  0  0  0  0
   12.9872   -1.0243    0.0000 C   0  0  0  0  0  0  0  0  0  0  0  0
   14.1529   -0.0803    0.0000 C   0  0  0  0  0  0  0  0  0  0  0  0
  1  2  1  0
  2  3  2  0
  3  4  1  0
  4  5  2  0
  5  6  1  0
  6  7  2  0
  7  8  1  0
  8  9  2  0
  9 10  1  0
 10 11  1  0
 11 12  2  0
 12 13  1  0
 13 14  2  0
 14 15  1  0
 15 16  2  0
 16 17  1  0
 17 18  2  0
 18 19  1  0
 19 20  2  0
 14 21  1  0
 21 22  2  0
 22 23  1  0
 23 24  2  0
 24 25  1  0
 25 26  2  0
 26 27  1  0
 27 28  2  0
 27 29  1  0
 29 30  1  0
 30 31  2  0
 31 32  1  0
 32 33  2  0
 33 34  1  0
 34 35  1  0
 35 36  2  0
 36 37  1  0
 37 38  2  0
 38 39  1  0
 39 40  1  0
 40 41  2  0
 41 42  1  0
 42 43  2  0
 43 44  1  0
 44 45  2  0
 45 46  1  0
 46 47  2  0
 47 48  1  0
 48 49  2  0
 49 50  1  0
 50 51  2  0
 50 52  1  0
 52 53  1  0
 53 54  2  0
 54 55  1  0
 55 56  2  0
 56 57  1  0
 57 58  2  0
 49 59  1  0
 59 60  2  0
 60 61  1  0
 61 62  2  0
 26 63  1  0
 63 64  2  0
  5 65  1  0
 65 66  2  0
 66  2  1  0
 10  6  1  0
 22 11  1  0
 64 23  1  0
 20 15  1  0
 34 30  1  0
 39 35  1  0
 45 40  1  0
 62 46  1  0
 58 53  1  0
M  END
>  <Title>  (221) 
idAAIMgen8

$$$$

     RDKit          2D

 13 14  0  0  0  0  0  0  0  0999 V2000
    1.4115    6.1843    0.0000 C   0  0  0  0  0  0  0  0  0  0  0  0
    1.0777    4.7219    0.0000 C   0  0  0  0  0  0  0  0  0  0  0  0
    2.2505    3.7867    0.0000 C   0  0  0  0  0  0  0  0  0  0  0  0
    2.2505    2.2867    0.0000 C   0  0  0  0  0  0  0  0  0  0  0  0
    1.0777    1.3515    0.0000 C   0  0  0  0  0  0  0  0  0  0  0  0
    1.7286    0.0000    0.0000 C   0  0  0  0  0  0  0  0  0  0  0  0
    1.0777   -1.3515    0.0000 C   0  0  0  0  0  0  0  0  0  0  0  0
   -0.3846   -1.6852    0.0000 C   0  0  0  0  0  0  0  0  0  0  0  0
   -1.5574   -0.7500    0.0000 C   0  0  0  0  0  0  0  0  0  0  0  0
   -1.5574    0.7500    0.0000 C   0  0  0  0  0  0  0  0  0  0  0  0
   -0.3846    1.6852    0.0000 C   0  0  0  0  0  0  0  0  0  0  0  0
   -1.0355    3.0367    0.0000 C   0  0  0  0  0  0  0  0  0  0  0  0
   -0.3846    4.3881    0.0000 C   0  0  0  0  0  0  0  0  0  0  0  0
  1  2  1  0
  2  3  2  0
  3  4  1  0
  4  5  2  0
  5  6  1  0
  6  7  2  0
  7  8  1  0
  8  9  2  0
  9 10  1  0
 10 11  2  0
 11 12  1  0
 12 13  2  0
 13  2  1  0
 11  5  1  0
M  END
>  <Title>  (222) 
idAAINgen8

$$$$

     RDKit          2D

 41 46  0  0  0  0  0  0  0  0999 V2000
    3.7500   -1.2990    0.0000 C   0  0  0  0  0  0  0  0  0  0  0  0
    3.0000    0.0000    0.0000 O   0  0  0  0  0  0  0  0  0  0  0  0
    1.5000    0.0000    0.0000 C   0  0  0  0  0  0  0  0  0  0  0  0
    0.7500   -1.2990    0.0000 C   0  0  0  0  0  0  0  0  0  0  0  0
   -0.7500   -1.2990    0.0000 C   0  0  0  0  0  0  0  0  0  0  0  0
   -1.5000    0.0000    0.0000 C   0  0  0  0  0  0  0  0  0  0  0  0
   -3.0000    0.0000    0.0000 C   0  0  0  0  0  0  0  0  0  0  0  0
   -3.8817   -1.2135    0.0000 N   0  0  0  0  0  0  0  0  0  0  0  0
   -5.3083   -0.7500    0.0000 N   0  0  0  0  0  0  0  0  0  0  0  0
   -5.3083    0.7500    0.0000 N   0  0  0  0  0  0  0  0  0  0  0  0
   -3.8817    1.2135    0.0000 N   0  0  0  0  0  0  0  0  0  0  0  0
   -3.4182    2.6401    0.0000 C   0  0  0  0  0  0  0  0  0  0  0  0
   -1.9509    2.9520    0.0000 C   0  0  0  0  0  0  0  0  0  0  0  0
   -1.4874    4.3786    0.0000 C   0  0  0  0  0  0  0  0  0  0  0  0
   -2.4911    5.4933    0.0000 C   0  0  0  0  0  0  0  0  0  0  0  0
   -2.0276    6.9199    0.0000 C   0  0  0  0  0  0  0  0  0  0  0  0
   -3.0313    8.0346    0.0000 O   0  0  0  0  0  0  0  0  0  0  0  0
   -0.5604    7.2317    0.0000 N   0  0  0  0  0  0  0  0  0  0  0  0
   -0.0968    8.6583    0.0000 C   0  0  0  0  0  0  0  0  0  0  0  0
   -0.9785    9.8718    0.0000 N   0  0  0  0  0  0  0  0  0  0  0  0
   -0.0968   11.0854    0.0000 N   0  0  0  0  0  0  0  0  0  0  0  0
    1.3298   10.6218    0.0000 N   0  0  0  0  0  0  0  0  0  0  0  0
    1.3298    9.1218    0.0000 N   0  0  0  0  0  0  0  0  0  0  0  0
    2.5433    8.2402    0.0000 C   0  0  0  0  0  0  0  0  0  0  0  0
    2.3865    6.7484    0.0000 C   0  0  0  0  0  0  0  0  0  0  0  0
    3.6000    5.8667    0.0000 C   0  0  0  0  0  0  0  0  0  0  0  0
    4.9703    6.4768    0.0000 C   0  0  0  0  0  0  0  0  0  0  0  0
    5.1271    7.9686    0.0000 C   0  0  0  0  0  0  0  0  0  0  0  0
    3.9136    8.8503    0.0000 C   0  0  0  0  0  0  0  0  0  0  0  0
   -3.9583    5.1814    0.0000 C   0  0  0  0  0  0  0  0  0  0  0  0
   -4.4218    3.7548    0.0000 C   0  0  0  0  0  0  0  0  0  0  0  0
   -5.8891    3.4430    0.0000 C   0  0  0  0  0  0  0  0  0  0  0  0
   -6.8928    4.5577    0.0000 C   0  0  0  0  0  0  0  0  0  0  0  0
   -8.3600    4.2458    0.0000 C   0  0  0  0  0  0  0  0  0  0  0  0
   -8.8235    2.8192    0.0000 C   0  0  0  0  0  0  0  0  0  0  0  0
  -10.2907    2.5074    0.0000 C   0  0  0  0  0  0  0  0  0  0  0  0
   -7.8198    1.7045    0.0000 C   0  0  0  0  0  0  0  0  0  0  0  0
   -8.2833    0.2779    0.0000 O   0  0  0  0  0  0  0  0  0  0  0  0
   -6.3526    2.0164    0.0000 N   0  0  0  0  0  0  0  0  0  0  0  0
   -0.7500    1.2990    0.0000 N   0  0  0  0  0  0  0  0  0  0  0  0
    0.7500    1.2990    0.0000 N   0  0  0  0  0  0  0  0  0  0  0  0
  1  2  1  0
  2  3  1  0
  3  4  2  0
  4  5  1  0
  5  6  2  0
  6  7  1  0
  7  8  2  0
  8  9  1  0
  9 10  2  0
 10 11  1  0
 11 12  1  0
 12 13  2  0
 13 14  1  0
 14 15  2  0
 15 16  1  0
 16 17  2  0
 16 18  1  0
 18 19  1  0
 19 20  2  0
 20 21  1  0
 21 22  2  0
 22 23  1  0
 23 24  1  0
 24 25  2  0
 25 26  1  0
 26 27  2  0
 27 28  1  0
 28 29  2  0
 15 30  1  0
 30 31  2  0
 31 32  1  0
 32 33  2  0
 33 34  1  0
 34 35  2  0
 35 36  1  0
 35 37  1  0
 37 38  2  0
 37 39  1  0
  6 40  1  0
 40 41  2  0
 41  3  1  0
 11  7  1  0
 31 12  1  0
 39 32  1  0
 23 19  1  0
 29 24  1  0
M  END
>  <Title>  (223) 
idAAIOgen8

$$$$

     RDKit          2D

 38 43  0  0  0  0  0  0  0  0999 V2000
    3.0000    0.0000    0.0000 C   0  0  0  0  0  0  0  0  0  0  0  0
    1.5000    0.0000    0.0000 C   0  0  0  0  0  0  0  0  0  0  0  0
    0.7500   -1.2990    0.0000 C   0  0  0  0  0  0  0  0  0  0  0  0
   -0.7500   -1.2990    0.0000 C   0  0  0  0  0  0  0  0  0  0  0  0
   -1.5000    0.0000    0.0000 C   0  0  0  0  0  0  0  0  0  0  0  0
   -3.0000    0.0000    0.0000 C   0  0  0  0  0  0  0  0  0  0  0  0
   -3.8817   -1.2135    0.0000 N   0  0  0  0  0  0  0  0  0  0  0  0
   -5.3083   -0.7500    0.0000 N   0  0  0  0  0  0  0  0  0  0  0  0
   -5.3083    0.7500    0.0000 N   0  0  0  0  0  0  0  0  0  0  0  0
   -3.8817    1.2135    0.0000 N   0  0  0  0  0  0  0  0  0  0  0  0
   -3.4182    2.6401    0.0000 C   0  0  0  0  0  0  0  0  0  0  0  0
   -1.9509    2.9520    0.0000 C   0  0  0  0  0  0  0  0  0  0  0  0
   -1.4874    4.3786    0.0000 C   0  0  0  0  0  0  0  0  0  0  0  0
   -2.4911    5.4933    0.0000 C   0  0  0  0  0  0  0  0  0  0  0  0
   -3.9583    5.1814    0.0000 C   0  0  0  0  0  0  0  0  0  0  0  0
   -4.4218    3.7548    0.0000 C   0  0  0  0  0  0  0  0  0  0  0  0
   -5.8891    3.4430    0.0000 C   0  0  0  0  0  0  0  0  0  0  0  0
   -6.8928    4.5577    0.0000 C   0  0  0  0  0  0  0  0  0  0  0  0
   -8.3600    4.2458    0.0000 C   0  0  0  0  0  0  0  0  0  0  0  0
   -8.8235    2.8192    0.0000 C   0  0  0  0  0  0  0  0  0  0  0  0
  -10.2907    2.5074    0.0000 C   0  0  0  0  0  0  0  0  0  0  0  0
  -10.7543    1.0808    0.0000 O   0  0  0  0  0  0  0  0  0  0  0  0
  -11.2944    3.6221    0.0000 N   0  0  0  0  0  0  0  0  0  0  0  0
  -12.7617    3.3102    0.0000 C   0  0  0  0  0  0  0  0  0  0  0  0
  -13.3718    1.9399    0.0000 N   0  0  0  0  0  0  0  0  0  0  0  0
  -14.8635    2.0967    0.0000 N   0  0  0  0  0  0  0  0  0  0  0  0
  -15.1754    3.5639    0.0000 N   0  0  0  0  0  0  0  0  0  0  0  0
  -13.8764    4.3139    0.0000 N   0  0  0  0  0  0  0  0  0  0  0  0
  -13.7196    5.8057    0.0000 C   0  0  0  0  0  0  0  0  0  0  0  0
  -12.3493    6.4158    0.0000 C   0  0  0  0  0  0  0  0  0  0  0  0
  -12.1925    7.9076    0.0000 C   0  0  0  0  0  0  0  0  0  0  0  0
  -13.4060    8.7893    0.0000 C   0  0  0  0  0  0  0  0  0  0  0  0
  -14.7763    8.1791    0.0000 C   0  0  0  0  0  0  0  0  0  0  0  0
  -14.9331    6.6874    0.0000 C   0  0  0  0  0  0  0  0  0  0  0  0
   -7.8198    1.7045    0.0000 C   0  0  0  0  0  0  0  0  0  0  0  0
   -6.3526    2.0164    0.0000 C   0  0  0  0  0  0  0  0  0  0  0  0
   -0.7500    1.2990    0.0000 C   0  0  0  0  0  0  0  0  0  0  0  0
    0.7500    1.2990    0.0000 C   0  0  0  0  0  0  0  0  0  0  0  0
  1  2  1  0
  2  3  2  0
  3  4  1  0
  4  5  2  0
  5  6  1  0
  6  7  2  0
  7  8  1  0
  8  9  2  0
  9 10  1  0
 10 11  1  0
 11 12  1  0
 12 13  1  0
 13 14  1  0
 14 15  1  0
 15 16  1  0
 16 17  1  0
 17 18  2  0
 18 19  1  0
 19 20  2  0
 20 21  1  0
 21 22  2  0
 21 23  1  0
 23 24  1  0
 24 25  2  0
 25 26  1  0
 26 27  2  0
 27 28  1  0
 28 29  1  0
 29 30  2  0
 30 31  1  0
 31 32  2  0
 32 33  1  0
 33 34  2  0
 20 35  1  0
 35 36  2  0
  5 37  1  0
 37 38  2  0
 38  2  1  0
 10  6  1  0
 16 11  1  0
 36 17  1  0
 28 24  1  0
 34 29  1  0
M  END
>  <Title>  (224) 
idAAIPgen8

$$$$

     RDKit          2D

 56 64  0  0  0  0  0  0  0  0999 V2000
    3.0000    0.0000    0.0000 C   0  0  0  0  0  0  0  0  0  0  0  0
    1.5000    0.0000    0.0000 C   0  0  0  0  0  0  0  0  0  0  0  0
    0.7500   -1.2990    0.0000 C   0  0  0  0  0  0  0  0  0  0  0  0
   -0.7500   -1.2990    0.0000 C   0  0  0  0  0  0  0  0  0  0  0  0
   -1.5000    0.0000    0.0000 C   0  0  0  0  0  0  0  0  0  0  0  0
   -3.0000    0.0000    0.0000 C   0  0  0  0  0  0  0  0  0  0  0  0
   -3.8817   -1.2135    0.0000 N   0  0  0  0  0  0  0  0  0  0  0  0
   -5.3083   -0.7500    0.0000 N   0  0  0  0  0  0  0  0  0  0  0  0
   -5.3083    0.7500    0.0000 N   0  0  0  0  0  0  0  0  0  0  0  0
   -3.8817    1.2135    0.0000 N   0  0  0  0  0  0  0  0  0  0  0  0
   -3.4182    2.6401    0.0000 C   0  0  0  0  0  0  0  0  0  0  0  0
   -1.9509    2.9520    0.0000 C   0  0  0  0  0  0  0  0  0  0  0  0
   -1.4874    4.3786    0.0000 C   0  0  0  0  0  0  0  0  0  0  0  0
   -2.4911    5.4933    0.0000 C   0  0  0  0  0  0  0  0  0  0  0  0
   -2.0276    6.9199    0.0000 C   0  0  0  0  0  0  0  0  0  0  0  0
   -2.9093    8.1334    0.0000 N   0  0  0  0  0  0  0  0  0  0  0  0
   -2.0276    9.3469    0.0000 N   0  0  0  0  0  0  0  0  0  0  0  0
   -0.6010    8.8834    0.0000 N   0  0  0  0  0  0  0  0  0  0  0  0
   -0.6010    7.3834    0.0000 N   0  0  0  0  0  0  0  0  0  0  0  0
    0.6125    6.5017    0.0000 C   0  0  0  0  0  0  0  0  0  0  0  0
    0.4557    5.0099    0.0000 C   0  0  0  0  0  0  0  0  0  0  0  0
    1.6693    4.1283    0.0000 C   0  0  0  0  0  0  0  0  0  0  0  0
    3.0396    4.7384    0.0000 C   0  0  0  0  0  0  0  0  0  0  0  0
    3.1964    6.2301    0.0000 C   0  0  0  0  0  0  0  0  0  0  0  0
    1.9829    7.1118    0.0000 C   0  0  0  0  0  0  0  0  0  0  0  0
    2.1396    8.6036    0.0000 C   0  0  0  0  0  0  0  0  0  0  0  0
    3.5100    9.2137    0.0000 C   0  0  0  0  0  0  0  0  0  0  0  0
    3.6668   10.7055    0.0000 C   0  0  0  0  0  0  0  0  0  0  0  0
    2.4532   11.5872    0.0000 C   0  0  0  0  0  0  0  0  0  0  0  0
    1.0829   10.9771    0.0000 C   0  0  0  0  0  0  0  0  0  0  0  0
    0.9261    9.4853    0.0000 C   0  0  0  0  0  0  0  0  0  0  0  0
   -3.9583    5.1814    0.0000 C   0  0  0  0  0  0  0  0  0  0  0  0
   -4.4218    3.7548    0.0000 C   0  0  0  0  0  0  0  0  0  0  0  0
   -5.8891    3.4430    0.0000 C   0  0  0  0  0  0  0  0  0  0  0  0
   -6.4992    2.0726    0.0000 C   0  0  0  0  0  0  0  0  0  0  0  0
   -7.9910    2.2294    0.0000 C   0  0  0  0  0  0  0  0  0  0  0  0
   -8.3028    3.6967    0.0000 C   0  0  0  0  0  0  0  0  0  0  0  0
   -9.6731    4.3068    0.0000 C   0  0  0  0  0  0  0  0  0  0  0  0
  -10.8867    3.4251    0.0000 O   0  0  0  0  0  0  0  0  0  0  0  0
   -9.8299    5.7985    0.0000 N   0  0  0  0  0  0  0  0  0  0  0  0
  -11.2003    6.4086    0.0000 C   0  0  0  0  0  0  0  0  0  0  0  0
  -12.4993    5.6586    0.0000 N   0  0  0  0  0  0  0  0  0  0  0  0
  -13.6140    6.6623    0.0000 N   0  0  0  0  0  0  0  0  0  0  0  0
  -13.0039    8.0327    0.0000 N   0  0  0  0  0  0  0  0  0  0  0  0
  -11.5121    7.8759    0.0000 N   0  0  0  0  0  0  0  0  0  0  0  0
  -10.5084    8.9906    0.0000 C   0  0  0  0  0  0  0  0  0  0  0  0
   -9.0412    8.6787    0.0000 C   0  0  0  0  0  0  0  0  0  0  0  0
   -8.0375    9.7934    0.0000 C   0  0  0  0  0  0  0  0  0  0  0  0
   -8.5010   11.2200    0.0000 C   0  0  0  0  0  0  0  0  0  0  0  0
   -7.4973   12.3347    0.0000 C   0  0  0  0  0  0  0  0  0  0  0  0
   -9.9683   11.5319    0.0000 C   0  0  0  0  0  0  0  0  0  0  0  0
  -10.9720   10.4172    0.0000 C   0  0  0  0  0  0  0  0  0  0  0  0
   -7.0038    4.4467    0.0000 C   0  0  0  0  0  0  0  0  0  0  0  0
   -6.8470    5.9384    0.0000 O   0  0  0  0  0  0  0  0  0  0  0  0
   -0.7500    1.2990    0.0000 C   0  0  0  0  0  0  0  0  0  0  0  0
    0.7500    1.2990    0.0000 C   0  0  0  0  0  0  0  0  0  0  0  0
  1  2  1  0
  2  3  2  0
  3  4  1  0
  4  5  2  0
  5  6  1  0
  6  7  2  0
  7  8  1  0
  8  9  2  0
  9 10  1  0
 10 11  1  0
 11 12  2  0
 12 13  1  0
 13 14  2  0
 14 15  1  0
 15 16  2  0
 16 17  1  0
 17 18  2  0
 18 19  1  0
 19 20  1  0
 20 21  2  0
 21 22  1  0
 22 23  2  0
 23 24  1  0
 24 25  2  0
 25 26  1  0
 26 27  2  0
 27 28  1  0
 28 29  2  0
 29 30  1  0
 30 31  2  0
 14 32  1  0
 32 33  2  0
 33 34  1  0
 34 35  2  0
 35 36  1  0
 36 37  2  0
 37 38  1  0
 38 39  2  0
 38 40  1  0
 40 41  1  0
 41 42  2  0
 42 43  1  0
 43 44  2  0
 44 45  1  0
 45 46  1  0
 46 47  2  0
 47 48  1  0
 48 49  2  0
 49 50  1  0
 49 51  1  0
 51 52  2  0
 37 53  1  0
 53 54  2  0
  5 55  1  0
 55 56  2  0
 56  2  1  0
 10  6  1  0
 33 11  1  0
 53 34  1  0
 19 15  1  0
 25 20  1  0
 31 26  1  0
 45 41  1  0
 52 46  1  0
M  END
>  <Title>  (225) 
idAAIQgen8

$$$$

     RDKit          2D

 15 16  0  0  0  0  0  0  0  0999 V2000
    3.4598   -0.0000    0.0000 C   0  0  0  0  0  0  0  0  0  0  0  0
    1.9598    0.0000    0.0000 C   0  0  0  0  0  0  0  0  0  0  0  0
    1.3858   -1.3858    0.0000 C   0  0  0  0  0  0  0  0  0  0  0  0
   -0.0000   -1.9598    0.0000 C   0  0  0  0  0  0  0  0  0  0  0  0
   -1.3858   -1.3858    0.0000 C   0  0  0  0  0  0  0  0  0  0  0  0
   -1.9598    0.0000    0.0000 C   0  0  0  0  0  0  0  0  0  0  0  0
   -3.4012   -0.4153    0.0000 C   0  0  0  0  0  0  0  0  0  0  0  0
   -4.6246    0.4528    0.0000 C   0  0  0  0  0  0  0  0  0  0  0  0
   -4.7087    1.9504    0.0000 C   0  0  0  0  0  0  0  0  0  0  0  0
   -3.5902    2.9499    0.0000 C   0  0  0  0  0  0  0  0  0  0  0  0
   -4.0055    4.3913    0.0000 F   0  0  0  0  0  0  0  0  0  0  0  0
   -2.1114    2.6987    0.0000 C   0  0  0  0  0  0  0  0  0  0  0  0
   -1.3858    1.3858    0.0000 C   0  0  0  0  0  0  0  0  0  0  0  0
    0.0000    1.9598    0.0000 C   0  0  0  0  0  0  0  0  0  0  0  0
    1.3858    1.3858    0.0000 C   0  0  0  0  0  0  0  0  0  0  0  0
  1  2  1  0
  2  3  2  0
  3  4  1  0
  4  5  2  0
  5  6  2  0
  6  7  1  0
  7  8  2  0
  8  9  1  0
  9 10  2  0
 10 11  1  0
 10 12  1  0
 12 13  2  0
 13 14  1  0
 14 15  2  0
 15  2  1  0
 13  6  1  0
M  END
>  <Title>  (226) 
idAAIRgen8

$$$$

     RDKit          2D

  7  7  0  0  0  0  0  0  0  0999 V2000
    3.0000    0.0000    0.0000 C   0  0  0  0  0  0  0  0  0  0  0  0
    1.5000    0.0000    0.0000 C   0  0  0  0  0  0  0  0  0  0  0  0
    0.7500   -1.2990    0.0000 C   0  0  0  0  0  0  0  0  0  0  0  0
   -0.7500   -1.2990    0.0000 C   0  0  0  0  0  0  0  0  0  0  0  0
   -1.5000    0.0000    0.0000 C   0  0  0  0  0  0  0  0  0  0  0  0
   -0.7500    1.2990    0.0000 C   0  0  0  0  0  0  0  0  0  0  0  0
    0.7500    1.2990    0.0000 C   0  0  0  0  0  0  0  0  0  0  0  0
  1  2  2  0
  2  3  1  0
  3  4  1  0
  4  5  1  0
  5  6  1  0
  6  7  1  0
  7  2  1  0
M  END
>  <Title>  (227) 
idAAISgen8

$$$$

     RDKit          2D

 25 25  0  0  0  0  0  0  0  0999 V2000
    7.0080   -0.0000    0.0000 C   0  0  0  0  0  0  0  0  0  0  0  0
    5.5080    0.0000    0.0000 C   0  0  0  0  0  0  0  0  0  0  0  0
    5.3037    1.4860    0.0000 C   0  0  0  0  0  0  0  0  0  0  0  0
    4.7061    2.8618    0.0000 C   0  0  0  0  0  0  0  0  0  0  0  0
    3.7595    4.0254    0.0000 C   0  0  0  0  0  0  0  0  0  0  0  0
    2.5340    4.8904    0.0000 C   0  0  0  0  0  0  0  0  0  0  0  0
    1.1206    5.3928    0.0000 C   0  0  0  0  0  0  0  0  0  0  0  0
   -0.3759    5.4951    0.0000 C   0  0  0  0  0  0  0  0  0  0  0  0
   -1.8445    5.1899    0.0000 C   0  0  0  0  0  0  0  0  0  0  0  0
   -3.1763    4.4998    0.0000 C   0  0  0  0  0  0  0  0  0  0  0  0
   -4.2726    3.4760    0.0000 C   0  0  0  0  0  0  0  0  0  0  0  0
   -5.0520    2.1944    0.0000 C   0  0  0  0  0  0  0  0  0  0  0  0
   -5.4567    0.7500    0.0000 C   0  0  0  0  0  0  0  0  0  0  0  0
   -5.4567   -0.7500    0.0000 C   0  0  0  0  0  0  0  0  0  0  0  0
   -5.0520   -2.1944    0.0000 C   0  0  0  0  0  0  0  0  0  0  0  0
   -4.2726   -3.4760    0.0000 C   0  0  0  0  0  0  0  0  0  0  0  0
   -3.1763   -4.4998    0.0000 C   0  0  0  0  0  0  0  0  0  0  0  0
   -1.8445   -5.1899    0.0000 C   0  0  0  0  0  0  0  0  0  0  0  0
   -0.3759   -5.4951    0.0000 C   0  0  0  0  0  0  0  0  0  0  0  0
    1.1206   -5.3928    0.0000 C   0  0  0  0  0  0  0  0  0  0  0  0
    2.5340   -4.8904    0.0000 C   0  0  0  0  0  0  0  0  0  0  0  0
    3.7595   -4.0254    0.0000 C   0  0  0  0  0  0  0  0  0  0  0  0
    4.7061   -2.8618    0.0000 C   0  0  0  0  0  0  0  0  0  0  0  0
    5.3037   -1.4860    0.0000 C   0  0  0  0  0  0  0  0  0  0  0  0
    6.7481   -1.8907    0.0000 C   0  0  0  0  0  0  0  0  0  0  0  0
  1  2  1  0
  2  3  2  0
  3  4  1  0
  4  5  2  0
  5  6  1  0
  6  7  2  0
  7  8  1  0
  8  9  2  0
  9 10  1  0
 10 11  2  0
 11 12  1  0
 12 13  2  0
 13 14  1  0
 14 15  2  0
 15 16  1  0
 16 17  2  0
 17 18  1  0
 18 19  2  0
 19 20  1  0
 20 21  2  0
 21 22  1  0
 22 23  1  0
 23 24  1  0
 24 25  1  0
 24  2  1  0
M  END
>  <Title>  (228) 
idAAITgen8

$$$$

     RDKit          2D

 46 52  0  0  0  0  0  0  0  0999 V2000
    3.0000    0.0000    0.0000 C   0  0  0  0  0  0  0  0  0  0  0  0
    1.5000    0.0000    0.0000 C   0  0  0  0  0  0  0  0  0  0  0  0
    0.7500   -1.2990    0.0000 C   0  0  0  0  0  0  0  0  0  0  0  0
   -0.7500   -1.2990    0.0000 C   0  0  0  0  0  0  0  0  0  0  0  0
   -1.5000    0.0000    0.0000 C   0  0  0  0  0  0  0  0  0  0  0  0
   -3.0000    0.0000    0.0000 C   0  0  0  0  0  0  0  0  0  0  0  0
   -3.8817   -1.2135    0.0000 N   0  0  0  0  0  0  0  0  0  0  0  0
   -5.3083   -0.7500    0.0000 N   0  0  0  0  0  0  0  0  0  0  0  0
   -5.3083    0.7500    0.0000 N   0  0  0  0  0  0  0  0  0  0  0  0
   -3.8817    1.2135    0.0000 N   0  0  0  0  0  0  0  0  0  0  0  0
   -3.4182    2.6401    0.0000 C   0  0  0  0  0  0  0  0  0  0  0  0
   -1.9509    2.9520    0.0000 C   0  0  0  0  0  0  0  0  0  0  0  0
   -1.4874    4.3786    0.0000 C   0  0  0  0  0  0  0  0  0  0  0  0
   -2.4911    5.4933    0.0000 C   0  0  0  0  0  0  0  0  0  0  0  0
   -2.0276    6.9199    0.0000 C   0  0  0  0  0  0  0  0  0  0  0  0
   -0.5604    7.2317    0.0000 N   0  0  0  0  0  0  0  0  0  0  0  0
   -0.0968    8.6583    0.0000 C   0  0  0  0  0  0  0  0  0  0  0  0
   -1.1005    9.7730    0.0000 O   0  0  0  0  0  0  0  0  0  0  0  0
    1.3704    8.9702    0.0000 N   0  0  0  0  0  0  0  0  0  0  0  0
    1.8339   10.3968    0.0000 C   0  0  0  0  0  0  0  0  0  0  0  0
    0.9522   11.6103    0.0000 N   0  0  0  0  0  0  0  0  0  0  0  0
    1.8339   12.8238    0.0000 N   0  0  0  0  0  0  0  0  0  0  0  0
    3.2605   12.3603    0.0000 N   0  0  0  0  0  0  0  0  0  0  0  0
    3.2605   10.8603    0.0000 N   0  0  0  0  0  0  0  0  0  0  0  0
    4.4740    9.9786    0.0000 C   0  0  0  0  0  0  0  0  0  0  0  0
    4.3172    8.4868    0.0000 C   0  0  0  0  0  0  0  0  0  0  0  0
    5.5308    7.6052    0.0000 C   0  0  0  0  0  0  0  0  0  0  0  0
    6.9011    8.2153    0.0000 C   0  0  0  0  0  0  0  0  0  0  0  0
    8.1146    7.3336    0.0000 C   0  0  0  0  0  0  0  0  0  0  0  0
    7.9578    5.8418    0.0000 C   0  0  0  0  0  0  0  0  0  0  0  0
    9.1713    4.9601    0.0000 C   0  0  0  0  0  0  0  0  0  0  0  0
   10.5417    5.5702    0.0000 C   0  0  0  0  0  0  0  0  0  0  0  0
   10.6984    7.0620    0.0000 C   0  0  0  0  0  0  0  0  0  0  0  0
    9.4849    7.9437    0.0000 C   0  0  0  0  0  0  0  0  0  0  0  0
    7.0579    9.7070    0.0000 C   0  0  0  0  0  0  0  0  0  0  0  0
    5.8443   10.5887    0.0000 C   0  0  0  0  0  0  0  0  0  0  0  0
    6.0011   12.0805    0.0000 C   0  0  0  0  0  0  0  0  0  0  0  0
    7.3715   12.6906    0.0000 C   0  0  0  0  0  0  0  0  0  0  0  0
    7.5282   14.1824    0.0000 C   0  0  0  0  0  0  0  0  0  0  0  0
    6.3147   15.0641    0.0000 C   0  0  0  0  0  0  0  0  0  0  0  0
    4.9444   14.4540    0.0000 C   0  0  0  0  0  0  0  0  0  0  0  0
    4.7876   12.9622    0.0000 C   0  0  0  0  0  0  0  0  0  0  0  0
   -3.9583    5.1814    0.0000 C   0  0  0  0  0  0  0  0  0  0  0  0
   -4.4218    3.7548    0.0000 C   0  0  0  0  0  0  0  0  0  0  0  0
   -0.7500    1.2990    0.0000 C   0  0  0  0  0  0  0  0  0  0  0  0
    0.7500    1.2990    0.0000 C   0  0  0  0  0  0  0  0  0  0  0  0
  1  2  1  0
  2  3  2  0
  3  4  1  0
  4  5  2  0
  5  6  1  0
  6  7  2  0
  7  8  1  0
  8  9  2  0
  9 10  1  0
 10 11  1  0
 11 12  2  0
 12 13  1  0
 13 14  2  0
 14 15  1  0
 15 16  1  0
 16 17  1  0
 17 18  2  0
 17 19  1  0
 19 20  1  0
 20 21  2  0
 21 22  1  0
 22 23  2  0
 23 24  1  0
 24 25  1  0
 25 26  2  0
 26 27  1  0
 27 28  2  0
 28 29  1  0
 29 30  2  0
 30 31  1  0
 31 32  2  0
 32 33  1  0
 33 34  2  0
 28 35  1  0
 35 36  2  0
 36 37  1  0
 37 38  2  0
 38 39  1  0
 39 40  2  0
 40 41  1  0
 41 42  2  0
 14 43  1  0
 43 44  2  0
  5 45  1  0
 45 46  2  0
 46  2  1  0
 10  6  1  0
 44 11  1  0
 24 20  1  0
 36 25  1  0
 42 37  1  0
 34 29  1  0
M  END
>  <Title>  (229) 
idAAIUgen8

$$$$

     RDKit          2D

 10 10  0  0  0  0  0  0  0  0999 V2000
    3.4598   -0.0000    0.0000 O   0  0  0  0  0  0  0  0  0  0  0  0
    1.9598    0.0000    0.0000 C   0  0  0  0  0  0  0  0  0  0  0  0
    1.3858   -1.3858    0.0000 C   0  0  0  0  0  0  0  0  0  0  0  0
   -0.0000   -1.9598    0.0000 C   0  0  0  0  0  0  0  0  0  0  0  0
   -1.3858   -1.3858    0.0000 C   0  0  0  0  0  0  0  0  0  0  0  0
   -1.9598    0.0000    0.0000 C   0  0  0  0  0  0  0  0  0  0  0  0
   -1.3858    1.3858    0.0000 C   0  0  0  0  0  0  0  0  0  0  0  0
   -2.4465    2.4465    0.0000 F   0  0  0  0  0  0  0  0  0  0  0  0
    0.0000    1.9598    0.0000 C   0  0  0  0  0  0  0  0  0  0  0  0
    1.3858    1.3858    0.0000 C   0  0  0  0  0  0  0  0  0  0  0  0
  1  2  1  0
  2  3  2  0
  3  4  1  0
  4  5  2  0
  5  6  1  0
  6  7  2  0
  7  8  1  0
  7  9  1  0
  9 10  2  0
 10  2  1  0
M  END
>  <Title>  (230) 
idAAIVgen8

$$$$

     RDKit          2D

 20 21  0  0  0  0  0  0  0  0999 V2000
    6.6686    4.0712    0.0000 C   0  0  0  0  0  0  0  0  0  0  0  0
    5.1874    3.8342    0.0000 C   0  0  0  0  0  0  0  0  0  0  0  0
    4.9035    2.3613    0.0000 C   0  0  0  0  0  0  0  0  0  0  0  0
    3.7393    1.4154    0.0000 C   0  0  0  0  0  0  0  0  0  0  0  0
    2.2395    1.4392    0.0000 C   0  0  0  0  0  0  0  0  0  0  0  0
    2.6621    0.0000    0.0000 C   0  0  0  0  0  0  0  0  0  0  0  0
    2.2395   -1.4392    0.0000 C   0  0  0  0  0  0  0  0  0  0  0  0
    1.1059   -2.4215    0.0000 C   0  0  0  0  0  0  0  0  0  0  0  0
   -0.3789   -2.6350    0.0000 C   0  0  0  0  0  0  0  0  0  0  0  0
   -1.7433   -2.0119    0.0000 C   0  0  0  0  0  0  0  0  0  0  0  0
   -2.5543   -0.7500    0.0000 C   0  0  0  0  0  0  0  0  0  0  0  0
   -2.5543    0.7500    0.0000 C   0  0  0  0  0  0  0  0  0  0  0  0
   -1.7433    2.0119    0.0000 C   0  0  0  0  0  0  0  0  0  0  0  0
   -0.3789    2.6350    0.0000 C   0  0  0  0  0  0  0  0  0  0  0  0
    1.1059    2.4215    0.0000 C   0  0  0  0  0  0  0  0  0  0  0  0
    0.8689    3.9027    0.0000 O   0  0  0  0  0  0  0  0  0  0  0  0
    1.6394    5.1897    0.0000 C   0  0  0  0  0  0  0  0  0  0  0  0
    3.0569    5.6803    0.0000 C   0  0  0  0  0  0  0  0  0  0  0  0
    4.4581    5.1449    0.0000 C   0  0  0  0  0  0  0  0  0  0  0  0
    5.4404    6.2786    0.0000 C   0  0  0  0  0  0  0  0  0  0  0  0
  1  2  1  0
  2  3  2  0
  3  4  1  0
  4  5  2  0
  5  6  1  0
  6  7  2  0
  7  8  1  0
  8  9  2  0
  9 10  1  0
 10 11  2  0
 11 12  1  0
 12 13  2  0
 13 14  1  0
 14 15  2  0
 15 16  1  0
 16 17  1  0
 17 18  1  0
 18 19  2  0
 19 20  1  0
 19  2  1  0
 15  5  1  0
M  END
>  <Title>  (231) 
idAAIWgen8

$$$$

     RDKit          2D

 36 40  0  0  0  0  0  0  0  0999 V2000
    3.0000    0.0000    0.0000 C   0  0  0  0  0  0  0  0  0  0  0  0
    1.5000    0.0000    0.0000 C   0  0  0  0  0  0  0  0  0  0  0  0
    0.7500    1.2990    0.0000 C   0  0  0  0  0  0  0  0  0  0  0  0
   -0.7500    1.2990    0.0000 C   0  0  0  0  0  0  0  0  0  0  0  0
   -1.5000    0.0000    0.0000 C   0  0  0  0  0  0  0  0  0  0  0  0
   -3.0000    0.0000    0.0000 C   0  0  0  0  0  0  0  0  0  0  0  0
   -3.8817   -1.2135    0.0000 N   0  0  0  0  0  0  0  0  0  0  0  0
   -5.3083   -0.7500    0.0000 N   0  0  0  0  0  0  0  0  0  0  0  0
   -5.3083    0.7500    0.0000 N   0  0  0  0  0  0  0  0  0  0  0  0
   -3.8817    1.2135    0.0000 N   0  0  0  0  0  0  0  0  0  0  0  0
   -3.4182    2.6401    0.0000 C   0  0  0  0  0  0  0  0  0  0  0  0
   -4.2998    3.8536    0.0000 C   0  0  0  0  0  0  0  0  0  0  0  0
   -3.4182    5.0672    0.0000 C   0  0  0  0  0  0  0  0  0  0  0  0
   -1.9916    4.6036    0.0000 C   0  0  0  0  0  0  0  0  0  0  0  0
   -0.7780    5.4853    0.0000 C   0  0  0  0  0  0  0  0  0  0  0  0
    0.6485    5.0218    0.0000 N   0  0  0  0  0  0  0  0  0  0  0  0
    1.5302    6.2353    0.0000 N   0  0  0  0  0  0  0  0  0  0  0  0
    0.6485    7.4488    0.0000 N   0  0  0  0  0  0  0  0  0  0  0  0
   -0.7780    6.9853    0.0000 N   0  0  0  0  0  0  0  0  0  0  0  0
   -1.9916    7.8670    0.0000 C   0  0  0  0  0  0  0  0  0  0  0  0
   -3.4182    7.4035    0.0000 C   0  0  0  0  0  0  0  0  0  0  0  0
   -4.2998    8.6170    0.0000 C   0  0  0  0  0  0  0  0  0  0  0  0
   -3.4182    9.8305    0.0000 C   0  0  0  0  0  0  0  0  0  0  0  0
   -3.8817   11.2571    0.0000 C   0  0  0  0  0  0  0  0  0  0  0  0
   -2.8780   12.3718    0.0000 O   0  0  0  0  0  0  0  0  0  0  0  0
   -5.3489   11.5690    0.0000 N   0  0  0  0  0  0  0  0  0  0  0  0
   -5.8124   12.9956    0.0000 C   0  0  0  0  0  0  0  0  0  0  0  0
   -7.2796   13.3074    0.0000 C   0  0  0  0  0  0  0  0  0  0  0  0
   -7.7432   14.7340    0.0000 O   0  0  0  0  0  0  0  0  0  0  0  0
   -1.9916    9.3670    0.0000 C   0  0  0  0  0  0  0  0  0  0  0  0
   -0.7780   10.2487    0.0000 O   0  0  0  0  0  0  0  0  0  0  0  0
   -1.9916    3.1036    0.0000 C   0  0  0  0  0  0  0  0  0  0  0  0
   -0.7780    2.2220    0.0000 O   0  0  0  0  0  0  0  0  0  0  0  0
   -0.7500   -1.2990    0.0000 C   0  0  0  0  0  0  0  0  0  0  0  0
   -1.5000   -2.5981    0.0000 O   0  0  0  0  0  0  0  0  0  0  0  0
    0.7500   -1.2990    0.0000 N   0  0  0  0  0  0  0  0  0  0  0  0
  1  2  1  0
  2  3  2  0
  3  4  1  0
  4  5  2  0
  5  6  1  0
  6  7  2  0
  7  8  1  0
  8  9  2  0
  9 10  1  0
 10 11  1  0
 11 12  2  0
 12 13  1  0
 13 14  2  0
 14 15  1  0
 15 16  2  0
 16 17  1  0
 17 18  2  0
 18 19  1  0
 19 20  1  0
 20 21  2  0
 21 22  1  0
 22 23  2  0
 23 24  1  0
 24 25  2  0
 24 26  1  0
 26 27  1  0
 27 28  1  0
 28 29  2  0
 23 30  1  0
 30 31  2  0
 14 32  1  0
 32 33  2  0
  5 34  1  0
 34 35  2  0
 34 36  1  0
 36  2  1  0
 10  6  1  0
 32 11  1  0
 19 15  1  0
 30 20  1  0
M  END
>  <Title>  (232) 
idAAIXgen8

$$$$

     RDKit          2D

 22 23  0  0  0  0  0  0  0  0999 V2000
    5.4786    1.2990    0.0000 C   0  0  0  0  0  0  0  0  0  0  0  0
    3.9786    1.2990    0.0000 C   0  0  0  0  0  0  0  0  0  0  0  0
    3.2286    2.5981    0.0000 O   0  0  0  0  0  0  0  0  0  0  0  0
    3.2286    0.0000    0.0000 N   0  0  0  0  0  0  0  0  0  0  0  0
    1.7286    0.0000    0.0000 C   0  0  0  0  0  0  0  0  0  0  0  0
    1.0777    1.3515    0.0000 C   0  0  0  0  0  0  0  0  0  0  0  0
   -0.3846    1.6852    0.0000 C   0  0  0  0  0  0  0  0  0  0  0  0
   -1.5574    0.7500    0.0000 C   0  0  0  0  0  0  0  0  0  0  0  0
   -1.5574   -0.7500    0.0000 C   0  0  0  0  0  0  0  0  0  0  0  0
   -0.3846   -1.6852    0.0000 N   0  0  0  0  0  0  0  0  0  0  0  0
    1.0777   -1.3515    0.0000 N   0  0  0  0  0  0  0  0  0  0  0  0
    2.0130   -2.5242    0.0000 N   0  0  0  0  0  0  0  0  0  0  0  0
    3.4962   -2.3006    0.0000 C   0  0  0  0  0  0  0  0  0  0  0  0
    1.4650   -3.9205    0.0000 C   0  0  0  0  0  0  0  0  0  0  0  0
   -0.0183   -4.1441    0.0000 O   0  0  0  0  0  0  0  0  0  0  0  0
    2.4002   -5.0933    0.0000 N   0  0  0  0  0  0  0  0  0  0  0  0
    1.7494   -6.4447    0.0000 C   0  0  0  0  0  0  0  0  0  0  0  0
    2.4002   -7.7962    0.0000 C   0  0  0  0  0  0  0  0  0  0  0  0
    3.8626   -8.1299    0.0000 C   0  0  0  0  0  0  0  0  0  0  0  0
    5.0353   -7.1947    0.0000 C   0  0  0  0  0  0  0  0  0  0  0  0
    5.0353   -5.6947    0.0000 C   0  0  0  0  0  0  0  0  0  0  0  0
    3.8626   -4.7595    0.0000 C   0  0  0  0  0  0  0  0  0  0  0  0
  1  2  1  0
  2  3  2  0
  2  4  1  0
  4  5  1  0
  5  6  2  0
  6  7  1  0
  7  8  2  0
  8  9  1  0
  9 10  2  0
 10 11  1  0
 11 12  1  0
 12 13  1  0
 12 14  1  0
 14 15  2  0
 14 16  1  0
 16 17  1  0
 17 18  1  0
 18 19  1  0
 19 20  1  0
 20 21  1  0
 21 22  1  0
 11  5  1  0
 22 16  1  0
M  END
>  <Title>  (233) 
idAAIYgen8

$$$$

     RDKit          2D

 12 12  0  0  0  0  0  0  0  0999 V2000
    4.1621    0.0000    0.0000 C   0  0  0  0  0  0  0  0  0  0  0  0
    2.6621    0.0000    0.0000 C   0  0  0  0  0  0  0  0  0  0  0  0
    2.2395    1.4392    0.0000 C   0  0  0  0  0  0  0  0  0  0  0  0
    1.1059    2.4215    0.0000 C   0  0  0  0  0  0  0  0  0  0  0  0
   -0.3789    2.6350    0.0000 C   0  0  0  0  0  0  0  0  0  0  0  0
   -1.7433    2.0119    0.0000 C   0  0  0  0  0  0  0  0  0  0  0  0
   -2.5543    0.7500    0.0000 C   0  0  0  0  0  0  0  0  0  0  0  0
   -2.5543   -0.7500    0.0000 C   0  0  0  0  0  0  0  0  0  0  0  0
   -1.7433   -2.0119    0.0000 C   0  0  0  0  0  0  0  0  0  0  0  0
   -0.3789   -2.6350    0.0000 C   0  0  0  0  0  0  0  0  0  0  0  0
    1.1059   -2.4215    0.0000 C   0  0  0  0  0  0  0  0  0  0  0  0
    2.2395   -1.4392    0.0000 C   0  0  0  0  0  0  0  0  0  0  0  0
  1  2  1  0
  2  3  2  0
  3  4  1  0
  4  5  2  0
  5  6  2  0
  6  7  1  0
  7  8  2  0
  8  9  1  0
  9 10  2  0
 10 11  1  0
 11 12  2  0
 12  2  1  0
M  END
>  <Title>  (234) 
idAAIZgen8

$$$$

     RDKit          2D

 18 19  0  0  0  0  0  0  0  0999 V2000
   -0.7500   -6.4952    0.0000 O   0  0  0  0  0  0  0  0  0  0  0  0
    0.7500   -6.4952    0.0000 C   0  0  0  0  0  0  0  0  0  0  0  0
    1.5000   -5.1962    0.0000 N   0  0  0  0  0  0  0  0  0  0  0  0
    0.7500   -3.8971    0.0000 C   0  0  0  0  0  0  0  0  0  0  0  0
    1.5000   -2.5981    0.0000 C   0  0  0  0  0  0  0  0  0  0  0  0
    0.7500   -1.2990    0.0000 C   0  0  0  0  0  0  0  0  0  0  0  0
    1.5000    0.0000    0.0000 C   0  0  0  0  0  0  0  0  0  0  0  0
    0.7500    1.2990    0.0000 C   0  0  0  0  0  0  0  0  0  0  0  0
   -0.7500    1.2990    0.0000 C   0  0  0  0  0  0  0  0  0  0  0  0
   -1.5000    2.5981    0.0000 F   0  0  0  0  0  0  0  0  0  0  0  0
   -1.5000    0.0000    0.0000 C   0  0  0  0  0  0  0  0  0  0  0  0
   -0.7500   -1.2990    0.0000 C   0  0  0  0  0  0  0  0  0  0  0  0
    1.5000   -7.7942    0.0000 C   0  0  0  0  0  0  0  0  0  0  0  0
    0.7500   -9.0933    0.0000 C   0  0  0  0  0  0  0  0  0  0  0  0
    1.5000  -10.3923    0.0000 C   0  0  0  0  0  0  0  0  0  0  0  0
    3.0000  -10.3923    0.0000 C   0  0  0  0  0  0  0  0  0  0  0  0
    3.7500   -9.0933    0.0000 C   0  0  0  0  0  0  0  0  0  0  0  0
    3.0000   -7.7942    0.0000 C   0  0  0  0  0  0  0  0  0  0  0  0
  1  2  2  0
  2  3  1  0
  3  4  1  0
  4  5  1  0
  5  6  1  0
  6  7  2  0
  7  8  1  0
  8  9  2  0
  9 10  1  0
  9 11  1  0
 11 12  2  0
  2 13  1  0
 13 14  2  0
 14 15  1  0
 15 16  2  0
 16 17  1  0
 17 18  2  0
 12  6  1  0
 18 13  1  0
M  END
>  <Title>  (235) 
idAAJAgen8

$$$$

     RDKit          2D

 24 27  0  0  0  0  0  0  0  0999 V2000
    3.0000    0.0000    0.0000 C   0  0  0  0  0  0  0  0  0  0  0  0
    1.5000    0.0000    0.0000 C   0  0  0  0  0  0  0  0  0  0  0  0
    0.7500    1.2990    0.0000 C   0  0  0  0  0  0  0  0  0  0  0  0
   -0.7500    1.2990    0.0000 C   0  0  0  0  0  0  0  0  0  0  0  0
   -1.5000    0.0000    0.0000 C   0  0  0  0  0  0  0  0  0  0  0  0
   -3.0000    0.0000    0.0000 C   0  0  0  0  0  0  0  0  0  0  0  0
   -3.8817   -1.2135    0.0000 N   0  0  0  0  0  0  0  0  0  0  0  0
   -5.3083   -0.7500    0.0000 N   0  0  0  0  0  0  0  0  0  0  0  0
   -5.3083    0.7500    0.0000 N   0  0  0  0  0  0  0  0  0  0  0  0
   -3.8817    1.2135    0.0000 N   0  0  0  0  0  0  0  0  0  0  0  0
   -3.4182    2.6401    0.0000 C   0  0  0  0  0  0  0  0  0  0  0  0
   -1.9509    2.9520    0.0000 C   0  0  0  0  0  0  0  0  0  0  0  0
   -1.4874    4.3786    0.0000 C   0  0  0  0  0  0  0  0  0  0  0  0
   -2.4911    5.4933    0.0000 C   0  0  0  0  0  0  0  0  0  0  0  0
   -3.9583    5.1814    0.0000 N   0  0  0  0  0  0  0  0  0  0  0  0
   -4.4218    3.7548    0.0000 C   0  0  0  0  0  0  0  0  0  0  0  0
   -5.8891    3.4430    0.0000 N   0  0  0  0  0  0  0  0  0  0  0  0
   -6.4992    2.0726    0.0000 N   0  0  0  0  0  0  0  0  0  0  0  0
   -7.9910    2.2294    0.0000 N   0  0  0  0  0  0  0  0  0  0  0  0
   -8.3028    3.6967    0.0000 N   0  0  0  0  0  0  0  0  0  0  0  0
   -7.0038    4.4467    0.0000 N   0  0  0  0  0  0  0  0  0  0  0  0
   -0.7500   -1.2990    0.0000 C   0  0  0  0  0  0  0  0  0  0  0  0
   -1.5000   -2.5981    0.0000 O   0  0  0  0  0  0  0  0  0  0  0  0
    0.7500   -1.2990    0.0000 N   0  0  0  0  0  0  0  0  0  0  0  0
  1  2  1  0
  2  3  2  0
  3  4  1  0
  4  5  2  0
  5  6  1  0
  6  7  2  0
  7  8  1  0
  8  9  2  0
  9 10  1  0
 10 11  1  0
 11 12  1  0
 12 13  1  0
 13 14  1  0
 14 15  1  0
 15 16  1  0
 16 17  1  0
 17 18  1  0
 18 19  2  0
 19 20  1  0
 20 21  2  0
  5 22  1  0
 22 23  2  0
 22 24  1  0
 24  2  1  0
 10  6  1  0
 16 11  1  0
 21 17  1  0
M  END
>  <Title>  (236) 
idAAJBgen8

$$$$

     RDKit          2D

 23 25  0  0  0  0  0  0  0  0999 V2000
    3.0000   -5.1962    0.0000 O   0  0  0  0  0  0  0  0  0  0  0  0
    1.5000   -5.1962    0.0000 C   0  0  0  0  0  0  0  0  0  0  0  0
    0.7500   -3.8971    0.0000 C   0  0  0  0  0  0  0  0  0  0  0  0
    1.5000   -2.5981    0.0000 C   0  0  0  0  0  0  0  0  0  0  0  0
    0.7500   -1.2990    0.0000 C   0  0  0  0  0  0  0  0  0  0  0  0
    1.5000    0.0000    0.0000 C   0  0  0  0  0  0  0  0  0  0  0  0
    0.7500    1.2990    0.0000 C   0  0  0  0  0  0  0  0  0  0  0  0
   -0.7500    1.2990    0.0000 C   0  0  0  0  0  0  0  0  0  0  0  0
   -1.5000    0.0000    0.0000 C   0  0  0  0  0  0  0  0  0  0  0  0
   -0.7500   -1.2990    0.0000 C   0  0  0  0  0  0  0  0  0  0  0  0
   -1.5000   -2.5981    0.0000 O   0  0  0  0  0  0  0  0  0  0  0  0
    0.7500   -6.4952    0.0000 C   0  0  0  0  0  0  0  0  0  0  0  0
   -0.7500   -6.4952    0.0000 C   0  0  0  0  0  0  0  0  0  0  0  0
   -1.5000   -7.7942    0.0000 C   0  0  0  0  0  0  0  0  0  0  0  0
   -0.7500   -9.0933    0.0000 C   0  0  0  0  0  0  0  0  0  0  0  0
    0.7500   -9.0933    0.0000 C   0  0  0  0  0  0  0  0  0  0  0  0
    1.5000   -7.7942    0.0000 C   0  0  0  0  0  0  0  0  0  0  0  0
    3.0000   -7.7942    0.0000 C   0  0  0  0  0  0  0  0  0  0  0  0
    3.7500   -9.0933    0.0000 C   0  0  0  0  0  0  0  0  0  0  0  0
    5.2500   -9.0933    0.0000 C   0  0  0  0  0  0  0  0  0  0  0  0
    6.0000   -7.7942    0.0000 C   0  0  0  0  0  0  0  0  0  0  0  0
    5.2500   -6.4952    0.0000 C   0  0  0  0  0  0  0  0  0  0  0  0
    3.7500   -6.4952    0.0000 C   0  0  0  0  0  0  0  0  0  0  0  0
  1  2  2  0
  2  3  1  0
  3  4  1  0
  4  5  1  0
  5  6  2  0
  6  7  1  0
  7  8  2  0
  8  9  1  0
  9 10  2  0
 10 11  1  0
  2 12  1  0
 12 13  1  0
 13 14  1  0
 14 15  1  0
 15 16  1  0
 16 17  1  0
 17 18  1  0
 18 19  2  0
 19 20  1  0
 20 21  2  0
 21 22  1  0
 22 23  2  0
 10  5  1  0
 17 12  1  0
 23 18  1  0
M  END
>  <Title>  (237) 
idAAJCgen8

$$$$

     RDKit          2D

 33 37  0  0  0  0  0  0  0  0999 V2000
    3.0000    0.0000    0.0000 C   0  0  0  0  0  0  0  0  0  0  0  0
    1.5000    0.0000    0.0000 C   0  0  0  0  0  0  0  0  0  0  0  0
    0.7500   -1.2990    0.0000 C   0  0  0  0  0  0  0  0  0  0  0  0
   -0.7500   -1.2990    0.0000 C   0  0  0  0  0  0  0  0  0  0  0  0
   -1.5000    0.0000    0.0000 C   0  0  0  0  0  0  0  0  0  0  0  0
   -3.0000    0.0000    0.0000 C   0  0  0  0  0  0  0  0  0  0  0  0
   -3.7500   -1.2990    0.0000 O   0  0  0  0  0  0  0  0  0  0  0  0
   -3.7500    1.2990    0.0000 N   0  0  0  0  0  0  0  0  0  0  0  0
   -5.2500    1.2990    0.0000 C   0  0  0  0  0  0  0  0  0  0  0  0
   -6.1317    0.0855    0.0000 N   0  0  0  0  0  0  0  0  0  0  0  0
   -7.5583    0.5490    0.0000 N   0  0  0  0  0  0  0  0  0  0  0  0
   -7.5583    2.0490    0.0000 N   0  0  0  0  0  0  0  0  0  0  0  0
   -6.1317    2.5126    0.0000 N   0  0  0  0  0  0  0  0  0  0  0  0
   -5.6682    3.9391    0.0000 C   0  0  0  0  0  0  0  0  0  0  0  0
   -4.2009    4.2510    0.0000 C   0  0  0  0  0  0  0  0  0  0  0  0
   -3.7374    5.6776    0.0000 C   0  0  0  0  0  0  0  0  0  0  0  0
   -4.7411    6.7923    0.0000 C   0  0  0  0  0  0  0  0  0  0  0  0
   -4.2776    8.2189    0.0000 C   0  0  0  0  0  0  0  0  0  0  0  0
   -5.1593    9.4324    0.0000 N   0  0  0  0  0  0  0  0  0  0  0  0
   -4.2776   10.6460    0.0000 N   0  0  0  0  0  0  0  0  0  0  0  0
   -2.8510   10.1824    0.0000 N   0  0  0  0  0  0  0  0  0  0  0  0
   -2.8510    8.6824    0.0000 N   0  0  0  0  0  0  0  0  0  0  0  0
   -1.6375    7.8008    0.0000 C   0  0  0  0  0  0  0  0  0  0  0  0
   -1.7943    6.3090    0.0000 C   0  0  0  0  0  0  0  0  0  0  0  0
   -0.5807    5.4273    0.0000 C   0  0  0  0  0  0  0  0  0  0  0  0
    0.7896    6.0374    0.0000 C   0  0  0  0  0  0  0  0  0  0  0  0
    0.9464    7.5292    0.0000 C   0  0  0  0  0  0  0  0  0  0  0  0
   -0.2671    8.4109    0.0000 C   0  0  0  0  0  0  0  0  0  0  0  0
   -6.2083    6.4805    0.0000 C   0  0  0  0  0  0  0  0  0  0  0  0
   -6.6718    5.0539    0.0000 C   0  0  0  0  0  0  0  0  0  0  0  0
   -0.7500    1.2990    0.0000 C   0  0  0  0  0  0  0  0  0  0  0  0
   -1.5000    2.5981    0.0000 O   0  0  0  0  0  0  0  0  0  0  0  0
    0.7500    1.2990    0.0000 N   0  0  0  0  0  0  0  0  0  0  0  0
  1  2  1  0
  2  3  2  0
  3  4  1  0
  4  5  2  0
  5  6  1  0
  6  7  2  0
  6  8  1  0
  8  9  1  0
  9 10  2  0
 10 11  1  0
 11 12  2  0
 12 13  1  0
 13 14  1  0
 14 15  2  0
 15 16  1  0
 16 17  2  0
 17 18  1  0
 18 19  2  0
 19 20  1  0
 20 21  2  0
 21 22  1  0
 22 23  1  0
 23 24  2  0
 24 25  1  0
 25 26  2  0
 26 27  1  0
 27 28  2  0
 17 29  1  0
 29 30  2  0
  5 31  1  0
 31 32  2  0
 31 33  1  0
 33  2  1  0
 13  9  1  0
 30 14  1  0
 22 18  1  0
 28 23  1  0
M  END
>  <Title>  (238) 
idAAJDgen8

$$$$

     RDKit          2D

 11 11  0  0  0  0  0  0  0  0999 V2000
    4.2098   -1.2990    0.0000 C   0  0  0  0  0  0  0  0  0  0  0  0
    3.4598   -0.0000    0.0000 O   0  0  0  0  0  0  0  0  0  0  0  0
    1.9598    0.0000    0.0000 C   0  0  0  0  0  0  0  0  0  0  0  0
    1.3858   -1.3858    0.0000 C   0  0  0  0  0  0  0  0  0  0  0  0
   -0.0000   -1.9598    0.0000 C   0  0  0  0  0  0  0  0  0  0  0  0
   -1.3858   -1.3858    0.0000 C   0  0  0  0  0  0  0  0  0  0  0  0
   -1.9598    0.0000    0.0000 C   0  0  0  0  0  0  0  0  0  0  0  0
   -1.3858    1.3858    0.0000 C   0  0  0  0  0  0  0  0  0  0  0  0
    0.0000    1.9598    0.0000 C   0  0  0  0  0  0  0  0  0  0  0  0
    1.3858    1.3858    0.0000 C   0  0  0  0  0  0  0  0  0  0  0  0
    2.4465    2.4465    0.0000 N   0  0  0  0  0  0  0  0  0  0  0  0
  1  2  1  0
  2  3  1  0
  3  4  2  0
  4  5  1  0
  5  6  2  0
  6  7  1  0
  7  8  2  0
  8  9  1  0
  9 10  2  0
 10 11  1  0
 10  3  1  0
M  END
>  <Title>  (239) 
idAAJEgen8

$$$$

     RDKit          2D

 67 77  0  0  0  0  0  0  0  0999 V2000
    0.8311   10.2038    0.0000 C   0  0  0  0  0  0  0  0  0  0  0  0
   -0.5392    9.5937    0.0000 C   0  0  0  0  0  0  0  0  0  0  0  0
   -1.7527   10.4753    0.0000 C   0  0  0  0  0  0  0  0  0  0  0  0
   -3.1230    9.8652    0.0000 C   0  0  0  0  0  0  0  0  0  0  0  0
   -3.2798    8.3735    0.0000 C   0  0  0  0  0  0  0  0  0  0  0  0
   -4.6502    7.7634    0.0000 C   0  0  0  0  0  0  0  0  0  0  0  0
   -5.9492    8.5134    0.0000 N   0  0  0  0  0  0  0  0  0  0  0  0
   -7.0639    7.5097    0.0000 N   0  0  0  0  0  0  0  0  0  0  0  0
   -6.4538    6.1393    0.0000 N   0  0  0  0  0  0  0  0  0  0  0  0
   -4.9620    6.2961    0.0000 N   0  0  0  0  0  0  0  0  0  0  0  0
   -3.9583    5.1814    0.0000 C   0  0  0  0  0  0  0  0  0  0  0  0
   -2.4911    5.4933    0.0000 C   0  0  0  0  0  0  0  0  0  0  0  0
   -1.4874    4.3786    0.0000 C   0  0  0  0  0  0  0  0  0  0  0  0
   -1.9509    2.9520    0.0000 C   0  0  0  0  0  0  0  0  0  0  0  0
   -3.4182    2.6401    0.0000 C   0  0  0  0  0  0  0  0  0  0  0  0
   -4.4218    3.7548    0.0000 C   0  0  0  0  0  0  0  0  0  0  0  0
   -5.8891    3.4430    0.0000 C   0  0  0  0  0  0  0  0  0  0  0  0
   -6.8928    4.5577    0.0000 C   0  0  0  0  0  0  0  0  0  0  0  0
   -8.3600    4.2458    0.0000 C   0  0  0  0  0  0  0  0  0  0  0  0
   -8.8235    2.8192    0.0000 C   0  0  0  0  0  0  0  0  0  0  0  0
  -10.2907    2.5074    0.0000 C   0  0  0  0  0  0  0  0  0  0  0  0
  -10.9008    1.1370    0.0000 N   0  0  0  0  0  0  0  0  0  0  0  0
  -12.3926    1.2938    0.0000 N   0  0  0  0  0  0  0  0  0  0  0  0
  -12.7045    2.7611    0.0000 N   0  0  0  0  0  0  0  0  0  0  0  0
  -11.4055    3.5111    0.0000 N   0  0  0  0  0  0  0  0  0  0  0  0
  -11.2487    5.0028    0.0000 C   0  0  0  0  0  0  0  0  0  0  0  0
   -9.8783    5.6129    0.0000 C   0  0  0  0  0  0  0  0  0  0  0  0
   -9.7215    7.1047    0.0000 C   0  0  0  0  0  0  0  0  0  0  0  0
  -10.9351    7.9864    0.0000 C   0  0  0  0  0  0  0  0  0  0  0  0
  -12.3054    7.3763    0.0000 C   0  0  0  0  0  0  0  0  0  0  0  0
  -12.4622    5.8845    0.0000 C   0  0  0  0  0  0  0  0  0  0  0  0
   -7.8198    1.7045    0.0000 C   0  0  0  0  0  0  0  0  0  0  0  0
   -6.3526    2.0164    0.0000 C   0  0  0  0  0  0  0  0  0  0  0  0
   -5.3489    0.9017    0.0000 N   0  0  0  0  0  0  0  0  0  0  0  0
   -3.8817    1.2135    0.0000 N   0  0  0  0  0  0  0  0  0  0  0  0
   -2.8780    0.0988    0.0000 N   0  0  0  0  0  0  0  0  0  0  0  0
   -3.3415   -1.3278    0.0000 N   0  0  0  0  0  0  0  0  0  0  0  0
   -4.8087   -1.6396    0.0000 N   0  0  0  0  0  0  0  0  0  0  0  0
   -5.8124   -0.5249    0.0000 N   0  0  0  0  0  0  0  0  0  0  0  0
   -7.2796   -0.8368    0.0000 C   0  0  0  0  0  0  0  0  0  0  0  0
   -8.3944    0.1669    0.0000 N   0  0  0  0  0  0  0  0  0  0  0  0
   -9.6934   -0.5831    0.0000 N   0  0  0  0  0  0  0  0  0  0  0  0
   -9.3815   -2.0503    0.0000 N   0  0  0  0  0  0  0  0  0  0  0  0
   -7.8898   -2.2071    0.0000 N   0  0  0  0  0  0  0  0  0  0  0  0
   -7.1398   -3.5062    0.0000 C   0  0  0  0  0  0  0  0  0  0  0  0
   -5.6398   -3.5062    0.0000 C   0  0  0  0  0  0  0  0  0  0  0  0
   -4.8898   -4.8052    0.0000 C   0  0  0  0  0  0  0  0  0  0  0  0
   -5.6398   -6.1042    0.0000 C   0  0  0  0  0  0  0  0  0  0  0  0
   -4.8898   -7.4033    0.0000 C   0  0  0  0  0  0  0  0  0  0  0  0
   -5.6398   -8.7023    0.0000 C   0  0  0  0  0  0  0  0  0  0  0  0
   -7.1315   -8.8591    0.0000 C   0  0  0  0  0  0  0  0  0  0  0  0
   -7.4434  -10.3263    0.0000 N   0  0  0  0  0  0  0  0  0  0  0  0
   -6.1444  -11.0763    0.0000 N   0  0  0  0  0  0  0  0  0  0  0  0
   -5.0296  -10.0726    0.0000 N   0  0  0  0  0  0  0  0  0  0  0  0
   -3.5624  -10.3845    0.0000 C   0  0  0  0  0  0  0  0  0  0  0  0
   -2.5587   -9.2698    0.0000 C   0  0  0  0  0  0  0  0  0  0  0  0
   -1.0915   -9.5816    0.0000 C   0  0  0  0  0  0  0  0  0  0  0  0
   -0.6280  -11.0082    0.0000 C   0  0  0  0  0  0  0  0  0  0  0  0
    0.8392  -11.3201    0.0000 N   0  0  0  0  0  0  0  0  0  0  0  0
   -1.6317  -12.1229    0.0000 N   0  0  0  0  0  0  0  0  0  0  0  0
   -3.0989  -11.8111    0.0000 C   0  0  0  0  0  0  0  0  0  0  0  0
   -4.1026  -12.9258    0.0000 O   0  0  0  0  0  0  0  0  0  0  0  0
   -7.1398   -6.1042    0.0000 C   0  0  0  0  0  0  0  0  0  0  0  0
   -7.8898   -7.4033    0.0000 O   0  0  0  0  0  0  0  0  0  0  0  0
   -7.8898   -4.8052    0.0000 N   0  0  0  0  0  0  0  0  0  0  0  0
   -2.0663    7.4918    0.0000 C   0  0  0  0  0  0  0  0  0  0  0  0
   -0.6960    8.1019    0.0000 C   0  0  0  0  0  0  0  0  0  0  0  0
  1  2  1  0
  2  3  2  0
  3  4  1  0
  4  5  2  0
  5  6  1  0
  6  7  2  0
  7  8  1  0
  8  9  2  0
  9 10  1  0
 10 11  1  0
 11 12  1  0
 12 13  1  0
 13 14  1  0
 14 15  1  0
 15 16  1  0
 16 17  1  0
 17 18  2  0
 18 19  1  0
 19 20  2  0
 20 21  1  0
 21 22  2  0
 22 23  1  0
 23 24  2  0
 24 25  1  0
 25 26  1  0
 26 27  2  0
 27 28  1  0
 28 29  2  0
 29 30  1  0
 30 31  2  0
 20 32  1  0
 32 33  2  0
 33 34  1  0
 34 35  1  0
 35 36  2  0
 36 37  1  0
 37 38  2  0
 38 39  1  0
 39 40  1  0
 40 41  2  0
 41 42  1  0
 42 43  2  0
 43 44  1  0
 44 45  1  0
 45 46  2  0
 46 47  1  0
 47 48  2  0
 48 49  1  0
 49 50  1  0
 50 51  2  0
 51 52  1  0
 52 53  2  0
 53 54  1  0
 54 55  1  0
 55 56  2  0
 56 57  1  0
 57 58  2  0
 58 59  1  0
 58 60  1  0
 60 61  1  0
 61 62  2  0
 48 63  1  0
 63 64  2  0
 63 65  1  0
  5 66  1  0
 66 67  2  0
 67  2  1  0
 10  6  1  0
 16 11  1  0
 33 17  1  0
 39 34  1  0
 44 40  1  0
 65 45  1  0
 25 21  1  0
 31 26  1  0
 54 50  1  0
 61 55  1  0
M  END
>  <Title>  (240) 
idAAJFgen8

$$$$

     RDKit          2D

 58 67  0  0  0  0  0  0  0  0999 V2000
   -8.2500   -6.4952    0.0000 C   0  0  0  0  0  0  0  0  0  0  0  0
   -7.5000   -5.1962    0.0000 C   0  0  0  0  0  0  0  0  0  0  0  0
   -6.0000   -5.1962    0.0000 C   0  0  0  0  0  0  0  0  0  0  0  0
   -5.2500   -3.8971    0.0000 C   0  0  0  0  0  0  0  0  0  0  0  0
   -6.0000   -2.5981    0.0000 C   0  0  0  0  0  0  0  0  0  0  0  0
   -5.2500   -1.2990    0.0000 N   0  0  0  0  0  0  0  0  0  0  0  0
   -6.0000    0.0000    0.0000 N   0  0  0  0  0  0  0  0  0  0  0  0
   -5.2500    1.2990    0.0000 N   0  0  0  0  0  0  0  0  0  0  0  0
   -3.7500    1.2990    0.0000 N   0  0  0  0  0  0  0  0  0  0  0  0
   -3.0000    0.0000    0.0000 N   0  0  0  0  0  0  0  0  0  0  0  0
   -3.7500   -1.2990    0.0000 N   0  0  0  0  0  0  0  0  0  0  0  0
   -3.0000   -2.5981    0.0000 C   0  0  0  0  0  0  0  0  0  0  0  0
   -3.7500   -3.8971    0.0000 C   0  0  0  0  0  0  0  0  0  0  0  0
   -3.0000   -5.1962    0.0000 C   0  0  0  0  0  0  0  0  0  0  0  0
   -1.5000   -5.1962    0.0000 C   0  0  0  0  0  0  0  0  0  0  0  0
   -0.7500   -6.4952    0.0000 C   0  0  0  0  0  0  0  0  0  0  0  0
    0.7418   -6.6520    0.0000 N   0  0  0  0  0  0  0  0  0  0  0  0
    1.0537   -8.1192    0.0000 N   0  0  0  0  0  0  0  0  0  0  0  0
   -0.2454   -8.8692    0.0000 N   0  0  0  0  0  0  0  0  0  0  0  0
   -1.3601   -7.8655    0.0000 N   0  0  0  0  0  0  0  0  0  0  0  0
   -2.8273   -8.1774    0.0000 C   0  0  0  0  0  0  0  0  0  0  0  0
   -3.8310   -7.0627    0.0000 C   0  0  0  0  0  0  0  0  0  0  0  0
   -5.2982   -7.3745    0.0000 C   0  0  0  0  0  0  0  0  0  0  0  0
   -5.7618   -8.8011    0.0000 C   0  0  0  0  0  0  0  0  0  0  0  0
   -4.7581   -9.9158    0.0000 C   0  0  0  0  0  0  0  0  0  0  0  0
   -3.2909   -9.6040    0.0000 C   0  0  0  0  0  0  0  0  0  0  0  0
   -0.7500   -3.8971    0.0000 C   0  0  0  0  0  0  0  0  0  0  0  0
   -1.5000   -2.5981    0.0000 C   0  0  0  0  0  0  0  0  0  0  0  0
   -0.7500   -1.2990    0.0000 C   0  0  0  0  0  0  0  0  0  0  0  0
   -1.3601    0.0713    0.0000 N   0  0  0  0  0  0  0  0  0  0  0  0
   -0.2454    1.0750    0.0000 N   0  0  0  0  0  0  0  0  0  0  0  0
    1.0537    0.3250    0.0000 N   0  0  0  0  0  0  0  0  0  0  0  0
    0.7418   -1.1422    0.0000 N   0  0  0  0  0  0  0  0  0  0  0  0
    1.7455   -2.2570    0.0000 C   0  0  0  0  0  0  0  0  0  0  0  0
    3.2373   -2.1002    0.0000 C   0  0  0  0  0  0  0  0  0  0  0  0
    3.8474   -3.4705    0.0000 C   0  0  0  0  0  0  0  0  0  0  0  0
    2.7326   -4.4742    0.0000 C   0  0  0  0  0  0  0  0  0  0  0  0
    2.8894   -5.9660    0.0000 C   0  0  0  0  0  0  0  0  0  0  0  0
    1.7747   -6.9697    0.0000 N   0  0  0  0  0  0  0  0  0  0  0  0
    2.3848   -8.3400    0.0000 N   0  0  0  0  0  0  0  0  0  0  0  0
    3.8766   -8.1832    0.0000 N   0  0  0  0  0  0  0  0  0  0  0  0
    4.1885   -6.7160    0.0000 N   0  0  0  0  0  0  0  0  0  0  0  0
    5.5588   -6.1059    0.0000 C   0  0  0  0  0  0  0  0  0  0  0  0
    5.8707   -4.6386    0.0000 N   0  0  0  0  0  0  0  0  0  0  0  0
    7.3624   -4.4818    0.0000 N   0  0  0  0  0  0  0  0  0  0  0  0
    7.9726   -5.8522    0.0000 N   0  0  0  0  0  0  0  0  0  0  0  0
    6.8578   -6.8559    0.0000 N   0  0  0  0  0  0  0  0  0  0  0  0
    7.0146   -8.3476    0.0000 C   0  0  0  0  0  0  0  0  0  0  0  0
    8.3849   -8.9577    0.0000 C   0  0  0  0  0  0  0  0  0  0  0  0
    8.5417  -10.4495    0.0000 C   0  0  0  0  0  0  0  0  0  0  0  0
    7.3282  -11.3312    0.0000 C   0  0  0  0  0  0  0  0  0  0  0  0
    5.9579  -10.7211    0.0000 C   0  0  0  0  0  0  0  0  0  0  0  0
    5.8011   -9.2293    0.0000 C   0  0  0  0  0  0  0  0  0  0  0  0
    1.4336   -3.7242    0.0000 C   0  0  0  0  0  0  0  0  0  0  0  0
    0.0633   -4.3343    0.0000 O   0  0  0  0  0  0  0  0  0  0  0  0
   -7.5000   -2.5981    0.0000 N   0  0  0  0  0  0  0  0  0  0  0  0
   -8.2500   -3.8971    0.0000 C   0  0  0  0  0  0  0  0  0  0  0  0
   -9.7500   -3.8971    0.0000 O   0  0  0  0  0  0  0  0  0  0  0  0
  1  2  1  0
  2  3  2  0
  3  4  1  0
  4  5  2  0
  5  6  1  0
  6  7  1  0
  7  8  2  0
  8  9  1  0
  9 10  2  0
 10 11  1  0
 11 12  1  0
 12 13  2  0
 13 14  1  0
 14 15  2  0
 15 16  1  0
 16 17  2  0
 17 18  1  0
 18 19  2  0
 19 20  1  0
 20 21  1  0
 21 22  2  0
 22 23  1  0
 23 24  2  0
 24 25  1  0
 25 26  2  0
 15 27  1  0
 27 28  2  0
 28 29  1  0
 29 30  2  0
 30 31  1  0
 31 32  2  0
 32 33  1  0
 33 34  1  0
 34 35  2  0
 35 36  1  0
 36 37  2  0
 37 38  1  0
 38 39  2  0
 39 40  1  0
 40 41  2  0
 41 42  1  0
 42 43  1  0
 43 44  2  0
 44 45  1  0
 45 46  2  0
 46 47  1  0
 47 48  1  0
 48 49  2  0
 49 50  1  0
 50 51  2  0
 51 52  1  0
 52 53  2  0
 37 54  1  0
 54 55  2  0
  5 56  1  0
 56 57  1  0
 57 58  2  0
 57  2  1  0
 11  6  1  0
 28 12  1  0
 33 29  1  0
 54 34  1  0
 20 16  1  0
 26 21  1  0
 42 38  1  0
 47 43  1  0
 53 48  1  0
M  END
>  <Title>  (241) 
idAAJGgen8

$$$$

     RDKit          2D

 19 19  0  0  0  0  0  0  0  0999 V2000
    6.0944   -1.2990    0.0000 C   0  0  0  0  0  0  0  0  0  0  0  0
    5.3444    0.0000    0.0000 O   0  0  0  0  0  0  0  0  0  0  0  0
    3.8444    0.0000    0.0000 C   0  0  0  0  0  0  0  0  0  0  0  0
    3.5517   -1.4712    0.0000 C   0  0  0  0  0  0  0  0  0  0  0  0
    2.7184   -2.7184    0.0000 C   0  0  0  0  0  0  0  0  0  0  0  0
    1.4712   -3.5517    0.0000 C   0  0  0  0  0  0  0  0  0  0  0  0
   -0.0000   -3.8444    0.0000 C   0  0  0  0  0  0  0  0  0  0  0  0
   -1.4712   -3.5517    0.0000 C   0  0  0  0  0  0  0  0  0  0  0  0
   -2.7184   -2.7184    0.0000 C   0  0  0  0  0  0  0  0  0  0  0  0
   -3.5517   -1.4712    0.0000 C   0  0  0  0  0  0  0  0  0  0  0  0
   -3.8444    0.0000    0.0000 C   0  0  0  0  0  0  0  0  0  0  0  0
   -3.5517    1.4712    0.0000 C   0  0  0  0  0  0  0  0  0  0  0  0
   -2.7184    2.7184    0.0000 C   0  0  0  0  0  0  0  0  0  0  0  0
   -1.4712    3.5517    0.0000 C   0  0  0  0  0  0  0  0  0  0  0  0
    0.0000    3.8444    0.0000 C   0  0  0  0  0  0  0  0  0  0  0  0
    1.4712    3.5517    0.0000 C   0  0  0  0  0  0  0  0  0  0  0  0
    2.0452    4.9376    0.0000 O   0  0  0  0  0  0  0  0  0  0  0  0
    2.7184    2.7184    0.0000 C   0  0  0  0  0  0  0  0  0  0  0  0
    3.5517    1.4712    0.0000 C   0  0  0  0  0  0  0  0  0  0  0  0
  1  2  1  0
  2  3  1  0
  3  4  2  0
  4  5  1  0
  5  6  2  0
  6  7  1  0
  7  8  2  0
  8  9  1  0
  9 10  2  0
 10 11  1  0
 11 12  2  0
 12 13  1  0
 13 14  2  0
 14 15  1  0
 15 16  2  0
 16 17  1  0
 16 18  1  0
 18 19  2  0
 19  3  1  0
M  END
>  <Title>  (242) 
idAAJHgen8

$$$$

     RDKit          2D

 37 41  0  0  0  0  0  0  0  0999 V2000
    3.0000    0.0000    0.0000 C   0  0  0  0  0  0  0  0  0  0  0  0
    1.5000    0.0000    0.0000 C   0  0  0  0  0  0  0  0  0  0  0  0
    0.7500   -1.2990    0.0000 C   0  0  0  0  0  0  0  0  0  0  0  0
   -0.7500   -1.2990    0.0000 C   0  0  0  0  0  0  0  0  0  0  0  0
   -1.5000    0.0000    0.0000 C   0  0  0  0  0  0  0  0  0  0  0  0
   -3.0000    0.0000    0.0000 N   0  0  0  0  0  0  0  0  0  0  0  0
   -3.8817    1.2135    0.0000 N   0  0  0  0  0  0  0  0  0  0  0  0
   -5.3083    0.7500    0.0000 N   0  0  0  0  0  0  0  0  0  0  0  0
   -5.3083   -0.7500    0.0000 N   0  0  0  0  0  0  0  0  0  0  0  0
   -3.8817   -1.2135    0.0000 C   0  0  0  0  0  0  0  0  0  0  0  0
   -3.4182   -2.6401    0.0000 C   0  0  0  0  0  0  0  0  0  0  0  0
   -1.9509   -2.9520    0.0000 C   0  0  0  0  0  0  0  0  0  0  0  0
   -1.4874   -4.3786    0.0000 C   0  0  0  0  0  0  0  0  0  0  0  0
   -2.4911   -5.4933    0.0000 C   0  0  0  0  0  0  0  0  0  0  0  0
   -2.0276   -6.9199    0.0000 C   0  0  0  0  0  0  0  0  0  0  0  0
   -3.9583   -5.1814    0.0000 C   0  0  0  0  0  0  0  0  0  0  0  0
   -4.9620   -6.2961    0.0000 O   0  0  0  0  0  0  0  0  0  0  0  0
   -4.4218   -3.7548    0.0000 N   0  0  0  0  0  0  0  0  0  0  0  0
   -0.7500    1.2990    0.0000 C   0  0  0  0  0  0  0  0  0  0  0  0
   -1.5000    2.5981    0.0000 C   0  0  0  0  0  0  0  0  0  0  0  0
   -2.9918    2.7549    0.0000 C   0  0  0  0  0  0  0  0  0  0  0  0
   -3.3037    4.2221    0.0000 C   0  0  0  0  0  0  0  0  0  0  0  0
   -2.0046    4.9721    0.0000 C   0  0  0  0  0  0  0  0  0  0  0  0
   -1.8478    6.4639    0.0000 C   0  0  0  0  0  0  0  0  0  0  0  0
   -0.4775    7.0740    0.0000 C   0  0  0  0  0  0  0  0  0  0  0  0
   -0.3207    8.5658    0.0000 C   0  0  0  0  0  0  0  0  0  0  0  0
   -1.5342    9.4474    0.0000 C   0  0  0  0  0  0  0  0  0  0  0  0
   -1.3774   10.9392    0.0000 C   0  0  0  0  0  0  0  0  0  0  0  0
   -2.5910   11.8209    0.0000 O   0  0  0  0  0  0  0  0  0  0  0  0
   -0.0071   11.5493    0.0000 N   0  0  0  0  0  0  0  0  0  0  0  0
    0.1497   13.0411    0.0000 O   0  0  0  0  0  0  0  0  0  0  0  0
   -2.9046    8.8373    0.0000 N   0  0  0  0  0  0  0  0  0  0  0  0
   -3.0613    7.3456    0.0000 C   0  0  0  0  0  0  0  0  0  0  0  0
   -4.4317    6.7354    0.0000 O   0  0  0  0  0  0  0  0  0  0  0  0
   -0.8899    3.9684    0.0000 C   0  0  0  0  0  0  0  0  0  0  0  0
    0.5773    4.2803    0.0000 O   0  0  0  0  0  0  0  0  0  0  0  0
    0.7500    1.2990    0.0000 C   0  0  0  0  0  0  0  0  0  0  0  0
  1  2  1  0
  2  3  2  0
  3  4  1  0
  4  5  2  0
  5  6  1  0
  6  7  1  0
  7  8  2  0
  8  9  1  0
  9 10  2  0
 10 11  1  0
 11 12  2  0
 12 13  1  0
 13 14  2  0
 14 15  1  0
 14 16  1  0
 16 17  2  0
 16 18  1  0
  5 19  1  0
 19 20  1  0
 20 21  2  0
 21 22  1  0
 22 23  2  0
 23 24  1  0
 24 25  2  0
 25 26  1  0
 26 27  2  0
 27 28  1  0
 28 29  2  0
 28 30  1  0
 30 31  1  0
 27 32  1  0
 32 33  1  0
 33 34  2  0
 23 35  1  0
 35 36  2  0
 19 37  2  0
 37  2  1  0
 10  6  1  0
 18 11  1  0
 35 20  1  0
 33 24  1  0
M  END
>  <Title>  (243) 
idAAJIgen8

$$$$

     RDKit          2D

 25 25  0  0  0  0  0  0  0  0999 V2000
    7.2460    0.0000    0.0000 C   0  0  0  0  0  0  0  0  0  0  0  0
    5.7460    0.0000    0.0000 C   0  0  0  0  0  0  0  0  0  0  0  0
    5.5502   -1.4872    0.0000 C   0  0  0  0  0  0  0  0  0  0  0  0
    4.9762   -2.8730    0.0000 C   0  0  0  0  0  0  0  0  0  0  0  0
    4.0630   -4.0630    0.0000 C   0  0  0  0  0  0  0  0  0  0  0  0
    2.8730   -4.9762    0.0000 C   0  0  0  0  0  0  0  0  0  0  0  0
    1.4872   -5.5502    0.0000 C   0  0  0  0  0  0  0  0  0  0  0  0
   -0.0000   -5.7460    0.0000 C   0  0  0  0  0  0  0  0  0  0  0  0
   -1.4872   -5.5502    0.0000 C   0  0  0  0  0  0  0  0  0  0  0  0
   -2.8730   -4.9762    0.0000 C   0  0  0  0  0  0  0  0  0  0  0  0
   -4.0630   -4.0630    0.0000 C   0  0  0  0  0  0  0  0  0  0  0  0
   -4.9762   -2.8730    0.0000 C   0  0  0  0  0  0  0  0  0  0  0  0
   -5.5502   -1.4872    0.0000 C   0  0  0  0  0  0  0  0  0  0  0  0
   -5.7460    0.0000    0.0000 C   0  0  0  0  0  0  0  0  0  0  0  0
   -5.5502    1.4872    0.0000 C   0  0  0  0  0  0  0  0  0  0  0  0
   -4.9762    2.8730    0.0000 C   0  0  0  0  0  0  0  0  0  0  0  0
   -4.0630    4.0630    0.0000 C   0  0  0  0  0  0  0  0  0  0  0  0
   -2.8730    4.9762    0.0000 C   0  0  0  0  0  0  0  0  0  0  0  0
   -1.4872    5.5502    0.0000 C   0  0  0  0  0  0  0  0  0  0  0  0
    0.0000    5.7460    0.0000 C   0  0  0  0  0  0  0  0  0  0  0  0
    1.4872    5.5502    0.0000 C   0  0  0  0  0  0  0  0  0  0  0  0
    2.8730    4.9762    0.0000 C   0  0  0  0  0  0  0  0  0  0  0  0
    4.0630    4.0630    0.0000 C   0  0  0  0  0  0  0  0  0  0  0  0
    4.9762    2.8730    0.0000 C   0  0  0  0  0  0  0  0  0  0  0  0
    5.5502    1.4872    0.0000 C   0  0  0  0  0  0  0  0  0  0  0  0
  1  2  1  0
  2  3  2  0
  3  4  1  0
  4  5  2  0
  5  6  2  0
  6  7  2  0
  7  8  1  0
  8  9  2  0
  9 10  1  0
 10 11  2  0
 11 12  1  0
 12 13  2  0
 13 14  1  0
 14 15  2  0
 15 16  1  0
 16 17  2  0
 17 18  1  0
 18 19  2  0
 19 20  1  0
 20 21  2  0
 21 22  1  0
 22 23  2  0
 23 24  1  0
 24 25  2  0
 25  2  1  0
M  END
>  <Title>  (244) 
idAAJJgen8

$$$$

     RDKit          2D

 56 63  0  0  0  0  0  0  0  0999 V2000
    8.8309    4.5492    0.0000 C   0  0  0  0  0  0  0  0  0  0  0  0
    8.1499    3.2127    0.0000 C   0  0  0  0  0  0  0  0  0  0  0  0
    8.9669    1.9547    0.0000 C   0  0  0  0  0  0  0  0  0  0  0  0
    8.2859    0.6182    0.0000 C   0  0  0  0  0  0  0  0  0  0  0  0
    6.7879    0.5397    0.0000 C   0  0  0  0  0  0  0  0  0  0  0  0
    6.1069   -0.7968    0.0000 C   0  0  0  0  0  0  0  0  0  0  0  0
    6.9239   -2.0548    0.0000 O   0  0  0  0  0  0  0  0  0  0  0  0
    4.6090   -0.8753    0.0000 N   0  0  0  0  0  0  0  0  0  0  0  0
    3.9280   -2.2118    0.0000 C   0  0  0  0  0  0  0  0  0  0  0  0
    4.6090   -3.5483    0.0000 N   0  0  0  0  0  0  0  0  0  0  0  0
    3.5483   -4.6090    0.0000 N   0  0  0  0  0  0  0  0  0  0  0  0
    2.2118   -3.9280    0.0000 N   0  0  0  0  0  0  0  0  0  0  0  0
    2.4465   -2.4465    0.0000 N   0  0  0  0  0  0  0  0  0  0  0  0
    1.3858   -1.3858    0.0000 C   0  0  0  0  0  0  0  0  0  0  0  0
    1.9598    0.0000    0.0000 C   0  0  0  0  0  0  0  0  0  0  0  0
    1.3858    1.3858    0.0000 C   0  0  0  0  0  0  0  0  0  0  0  0
    0.0000    1.9598    0.0000 C   0  0  0  0  0  0  0  0  0  0  0  0
    0.0000    3.4598    0.0000 C   0  0  0  0  0  0  0  0  0  0  0  0
   -1.2990    4.2098    0.0000 O   0  0  0  0  0  0  0  0  0  0  0  0
    1.2990    4.2098    0.0000 N   0  0  0  0  0  0  0  0  0  0  0  0
    1.2990    5.7098    0.0000 O   0  0  0  0  0  0  0  0  0  0  0  0
   -1.3858    1.3858    0.0000 C   0  0  0  0  0  0  0  0  0  0  0  0
   -2.4465    2.4465    0.0000 C   0  0  0  0  0  0  0  0  0  0  0  0
   -1.9598    0.0000    0.0000 C   0  0  0  0  0  0  0  0  0  0  0  0
   -1.3858   -1.3858    0.0000 C   0  0  0  0  0  0  0  0  0  0  0  0
   -0.0000   -1.9598    0.0000 C   0  0  0  0  0  0  0  0  0  0  0  0
   -0.0000   -3.4598    0.0000 N   0  0  0  0  0  0  0  0  0  0  0  0
    1.2135   -4.3415    0.0000 C   0  0  0  0  0  0  0  0  0  0  0  0
    0.7500   -5.7681    0.0000 C   0  0  0  0  0  0  0  0  0  0  0  0
   -0.7500   -5.7681    0.0000 C   0  0  0  0  0  0  0  0  0  0  0  0
   -1.2135   -4.3415    0.0000 C   0  0  0  0  0  0  0  0  0  0  0  0
   -2.6401   -3.8780    0.0000 C   0  0  0  0  0  0  0  0  0  0  0  0
   -2.9520   -2.4108    0.0000 C   0  0  0  0  0  0  0  0  0  0  0  0
   -4.3786   -1.9472    0.0000 C   0  0  0  0  0  0  0  0  0  0  0  0
   -5.4933   -2.9509    0.0000 C   0  0  0  0  0  0  0  0  0  0  0  0
   -6.9199   -2.4874    0.0000 C   0  0  0  0  0  0  0  0  0  0  0  0
   -8.1334   -3.3691    0.0000 N   0  0  0  0  0  0  0  0  0  0  0  0
   -9.3469   -2.4874    0.0000 N   0  0  0  0  0  0  0  0  0  0  0  0
   -8.8834   -1.0608    0.0000 N   0  0  0  0  0  0  0  0  0  0  0  0
   -7.3834   -1.0608    0.0000 N   0  0  0  0  0  0  0  0  0  0  0  0
   -6.5017    0.1527    0.0000 C   0  0  0  0  0  0  0  0  0  0  0  0
   -5.0099   -0.0041    0.0000 C   0  0  0  0  0  0  0  0  0  0  0  0
   -4.1283    1.2094    0.0000 C   0  0  0  0  0  0  0  0  0  0  0  0
   -4.7384    2.5797    0.0000 N   0  0  0  0  0  0  0  0  0  0  0  0
   -6.2301    2.7365    0.0000 C   0  0  0  0  0  0  0  0  0  0  0  0
   -7.1118    1.5230    0.0000 C   0  0  0  0  0  0  0  0  0  0  0  0
   -8.6036    1.6798    0.0000 C   0  0  0  0  0  0  0  0  0  0  0  0
   -9.2137    3.0501    0.0000 C   0  0  0  0  0  0  0  0  0  0  0  0
  -10.7055    3.2069    0.0000 C   0  0  0  0  0  0  0  0  0  0  0  0
  -11.5872    1.9934    0.0000 C   0  0  0  0  0  0  0  0  0  0  0  0
  -10.9771    0.6231    0.0000 C   0  0  0  0  0  0  0  0  0  0  0  0
   -9.4853    0.4663    0.0000 C   0  0  0  0  0  0  0  0  0  0  0  0
   -5.1814   -4.4182    0.0000 C   0  0  0  0  0  0  0  0  0  0  0  0
   -3.7548   -4.8817    0.0000 C   0  0  0  0  0  0  0  0  0  0  0  0
    5.9710    1.7977    0.0000 C   0  0  0  0  0  0  0  0  0  0  0  0
    6.6520    3.1342    0.0000 C   0  0  0  0  0  0  0  0  0  0  0  0
  1  2  1  0
  2  3  2  0
  3  4  1  0
  4  5  2  0
  5  6  1  0
  6  7  2  0
  6  8  1  0
  8  9  1  0
  9 10  2  0
 10 11  1  0
 11 12  2  0
 12 13  1  0
 13 14  1  0
 14 15  2  0
 15 16  1  0
 16 17  2  0
 17 18  1  0
 18 19  2  0
 18 20  1  0
 20 21  1  0
 17 22  1  0
 22 23  1  0
 22 24  2  0
 24 25  1  0
 25 26  2  0
 26 27  1  0
 27 28  1  0
 28 29  2  0
 29 30  1  0
 30 31  2  0
 31 32  1  0
 32 33  2  0
 33 34  1  0
 34 35  2  0
 35 36  1  0
 36 37  2  0
 37 38  1  0
 38 39  2  0
 39 40  1  0
 40 41  1  0
 41 42  2  0
 42 43  1  0
 43 44  2  0
 44 45  1  0
 45 46  2  0
 46 47  1  0
 47 48  2  0
 48 49  1  0
 49 50  2  0
 50 51  1  0
 51 52  2  0
 35 53  1  0
 53 54  1  0
  5 55  1  0
 55 56  2  0
 56  2  1  0
 13  9  1  0
 26 14  1  0
 31 27  1  0
 54 32  1  0
 40 36  1  0
 46 41  1  0
 52 47  1  0
M  END
>  <Title>  (245) 
idAAJKgen8

$$$$

     RDKit          2D

 36 40  0  0  0  0  0  0  0  0999 V2000
    3.0000    0.0000    0.0000 C   0  0  0  0  0  0  0  0  0  0  0  0
    1.5000    0.0000    0.0000 C   0  0  0  0  0  0  0  0  0  0  0  0
    0.7500   -1.2990    0.0000 C   0  0  0  0  0  0  0  0  0  0  0  0
   -0.7500   -1.2990    0.0000 C   0  0  0  0  0  0  0  0  0  0  0  0
   -1.5000    0.0000    0.0000 C   0  0  0  0  0  0  0  0  0  0  0  0
   -3.0000    0.0000    0.0000 C   0  0  0  0  0  0  0  0  0  0  0  0
   -3.7500   -1.2990    0.0000 O   0  0  0  0  0  0  0  0  0  0  0  0
   -3.7500    1.2990    0.0000 N   0  0  0  0  0  0  0  0  0  0  0  0
   -5.2500    1.2990    0.0000 C   0  0  0  0  0  0  0  0  0  0  0  0
   -6.1317    0.0855    0.0000 N   0  0  0  0  0  0  0  0  0  0  0  0
   -7.5583    0.5490    0.0000 N   0  0  0  0  0  0  0  0  0  0  0  0
   -7.5583    2.0490    0.0000 N   0  0  0  0  0  0  0  0  0  0  0  0
   -6.1317    2.5126    0.0000 N   0  0  0  0  0  0  0  0  0  0  0  0
   -5.6682    3.9391    0.0000 C   0  0  0  0  0  0  0  0  0  0  0  0
   -6.5498    5.1527    0.0000 C   0  0  0  0  0  0  0  0  0  0  0  0
   -5.6682    6.3662    0.0000 C   0  0  0  0  0  0  0  0  0  0  0  0
   -4.2416    5.9027    0.0000 C   0  0  0  0  0  0  0  0  0  0  0  0
   -3.0280    6.7844    0.0000 C   0  0  0  0  0  0  0  0  0  0  0  0
   -3.1848    8.2761    0.0000 O   0  0  0  0  0  0  0  0  0  0  0  0
   -1.6577    6.1742    0.0000 N   0  0  0  0  0  0  0  0  0  0  0  0
   -0.4442    7.0559    0.0000 C   0  0  0  0  0  0  0  0  0  0  0  0
   -0.4442    8.5559    0.0000 N   0  0  0  0  0  0  0  0  0  0  0  0
    0.9824    9.0195    0.0000 N   0  0  0  0  0  0  0  0  0  0  0  0
    1.8641    7.8059    0.0000 N   0  0  0  0  0  0  0  0  0  0  0  0
    0.9824    6.5924    0.0000 N   0  0  0  0  0  0  0  0  0  0  0  0
    1.4459    5.1658    0.0000 C   0  0  0  0  0  0  0  0  0  0  0  0
    0.4422    4.0511    0.0000 C   0  0  0  0  0  0  0  0  0  0  0  0
    0.9057    2.6245    0.0000 C   0  0  0  0  0  0  0  0  0  0  0  0
    2.3730    2.3126    0.0000 C   0  0  0  0  0  0  0  0  0  0  0  0
    3.3767    3.4274    0.0000 C   0  0  0  0  0  0  0  0  0  0  0  0
    2.9131    4.8539    0.0000 C   0  0  0  0  0  0  0  0  0  0  0  0
   -4.2416    4.4027    0.0000 C   0  0  0  0  0  0  0  0  0  0  0  0
   -3.0280    3.5210    0.0000 O   0  0  0  0  0  0  0  0  0  0  0  0
   -0.7500    1.2990    0.0000 C   0  0  0  0  0  0  0  0  0  0  0  0
   -1.5000    2.5981    0.0000 O   0  0  0  0  0  0  0  0  0  0  0  0
    0.7500    1.2990    0.0000 N   0  0  0  0  0  0  0  0  0  0  0  0
  1  2  1  0
  2  3  2  0
  3  4  1  0
  4  5  2  0
  5  6  1  0
  6  7  2  0
  6  8  1  0
  8  9  1  0
  9 10  2  0
 10 11  1  0
 11 12  2  0
 12 13  1  0
 13 14  1  0
 14 15  2  0
 15 16  1  0
 16 17  2  0
 17 18  1  0
 18 19  2  0
 18 20  1  0
 20 21  1  0
 21 22  2  0
 22 23  1  0
 23 24  2  0
 24 25  1  0
 25 26  1  0
 26 27  2  0
 27 28  1  0
 28 29  2  0
 29 30  1  0
 30 31  2  0
 17 32  1  0
 32 33  2  0
  5 34  1  0
 34 35  2  0
 34 36  1  0
 36  2  1  0
 13  9  1  0
 32 14  1  0
 25 21  1  0
 31 26  1  0
M  END
>  <Title>  (246) 
idAAJLgen8

$$$$

     RDKit          2D

 23 23  0  0  0  0  0  0  0  0999 V2000
    7.0443    1.2990    0.0000 C   0  0  0  0  0  0  0  0  0  0  0  0
    6.2943    0.0000    0.0000 O   0  0  0  0  0  0  0  0  0  0  0  0
    4.7943    0.0000    0.0000 C   0  0  0  0  0  0  0  0  0  0  0  0
    4.5597   -1.4815    0.0000 C   0  0  0  0  0  0  0  0  0  0  0  0
    5.9863   -1.9451    0.0000 O   0  0  0  0  0  0  0  0  0  0  0  0
    3.8787   -2.8180    0.0000 C   0  0  0  0  0  0  0  0  0  0  0  0
    2.8180   -3.8787    0.0000 C   0  0  0  0  0  0  0  0  0  0  0  0
    1.4815   -4.5597    0.0000 C   0  0  0  0  0  0  0  0  0  0  0  0
   -0.0000   -4.7943    0.0000 C   0  0  0  0  0  0  0  0  0  0  0  0
   -1.4815   -4.5597    0.0000 C   0  0  0  0  0  0  0  0  0  0  0  0
   -2.8180   -3.8787    0.0000 C   0  0  0  0  0  0  0  0  0  0  0  0
   -3.8787   -2.8180    0.0000 C   0  0  0  0  0  0  0  0  0  0  0  0
   -4.5597   -1.4815    0.0000 C   0  0  0  0  0  0  0  0  0  0  0  0
   -4.7943    0.0000    0.0000 C   0  0  0  0  0  0  0  0  0  0  0  0
   -4.5597    1.4815    0.0000 C   0  0  0  0  0  0  0  0  0  0  0  0
   -3.8787    2.8180    0.0000 C   0  0  0  0  0  0  0  0  0  0  0  0
   -2.8180    3.8787    0.0000 C   0  0  0  0  0  0  0  0  0  0  0  0
   -1.4815    4.5597    0.0000 C   0  0  0  0  0  0  0  0  0  0  0  0
    0.0000    4.7943    0.0000 C   0  0  0  0  0  0  0  0  0  0  0  0
    1.4815    4.5597    0.0000 C   0  0  0  0  0  0  0  0  0  0  0  0
    2.8180    3.8787    0.0000 C   0  0  0  0  0  0  0  0  0  0  0  0
    3.8787    2.8180    0.0000 C   0  0  0  0  0  0  0  0  0  0  0  0
    4.5597    1.4815    0.0000 C   0  0  0  0  0  0  0  0  0  0  0  0
  1  2  1  0
  2  3  1  0
  3  4  2  0
  4  5  1  0
  4  6  1  0
  6  7  2  0
  7  8  1  0
  8  9  2  0
  9 10  1  0
 10 11  2  0
 11 12  1  0
 12 13  2  0
 13 14  1  0
 14 15  2  0
 15 16  1  0
 16 17  2  0
 17 18  1  0
 18 19  2  0
 19 20  1  0
 20 21  2  0
 21 22  1  0
 22 23  2  0
 23  3  1  0
M  END
>  <Title>  (247) 
idAAJMgen8

$$$$

     RDKit          2D

 11 11  0  0  0  0  0  0  0  0999 V2000
    3.9271    0.0000    0.0000 O   0  0  0  0  0  0  0  0  0  0  0  0
    2.4271    0.0000    0.0000 C   0  0  0  0  0  0  0  0  0  0  0  0
    1.9635   -1.4266    0.0000 C   0  0  0  0  0  0  0  0  0  0  0  0
    0.7500   -2.3083    0.0000 C   0  0  0  0  0  0  0  0  0  0  0  0
   -0.7500   -2.3083    0.0000 C   0  0  0  0  0  0  0  0  0  0  0  0
   -1.9635   -1.4266    0.0000 C   0  0  0  0  0  0  0  0  0  0  0  0
   -2.4271    0.0000    0.0000 C   0  0  0  0  0  0  0  0  0  0  0  0
   -1.9635    1.4266    0.0000 N   0  0  0  0  0  0  0  0  0  0  0  0
   -0.7500    2.3083    0.0000 C   0  0  0  0  0  0  0  0  0  0  0  0
    0.7500    2.3083    0.0000 C   0  0  0  0  0  0  0  0  0  0  0  0
    1.9635    1.4266    0.0000 C   0  0  0  0  0  0  0  0  0  0  0  0
  1  2  1  0
  2  3  2  0
  3  4  1  0
  4  5  2  0
  5  6  1  0
  6  7  2  0
  7  8  2  0
  8  9  1  0
  9 10  1  0
 10 11  2  0
 11  2  1  0
M  END
>  <Title>  (248) 
idAAJNgen8

$$$$

     RDKit          2D

 25 28  0  0  0  0  0  0  0  0999 V2000
    3.7500   -1.2990    0.0000 C   0  0  0  0  0  0  0  0  0  0  0  0
    3.0000    0.0000    0.0000 O   0  0  0  0  0  0  0  0  0  0  0  0
    1.5000    0.0000    0.0000 C   0  0  0  0  0  0  0  0  0  0  0  0
    0.7500   -1.2990    0.0000 C   0  0  0  0  0  0  0  0  0  0  0  0
   -0.7500   -1.2990    0.0000 C   0  0  0  0  0  0  0  0  0  0  0  0
   -1.5000    0.0000    0.0000 C   0  0  0  0  0  0  0  0  0  0  0  0
   -3.0000    0.0000    0.0000 N   0  0  0  0  0  0  0  0  0  0  0  0
   -3.8817   -1.2135    0.0000 N   0  0  0  0  0  0  0  0  0  0  0  0
   -5.3083   -0.7500    0.0000 N   0  0  0  0  0  0  0  0  0  0  0  0
   -5.3083    0.7500    0.0000 N   0  0  0  0  0  0  0  0  0  0  0  0
   -3.8817    1.2135    0.0000 C   0  0  0  0  0  0  0  0  0  0  0  0
   -3.4182    2.6401    0.0000 C   0  0  0  0  0  0  0  0  0  0  0  0
   -4.2998    3.8536    0.0000 C   0  0  0  0  0  0  0  0  0  0  0  0
   -3.4182    5.0672    0.0000 C   0  0  0  0  0  0  0  0  0  0  0  0
   -1.9916    4.6036    0.0000 C   0  0  0  0  0  0  0  0  0  0  0  0
   -0.7780    5.4853    0.0000 C   0  0  0  0  0  0  0  0  0  0  0  0
    0.5923    4.8752    0.0000 C   0  0  0  0  0  0  0  0  0  0  0  0
    1.8058    5.7569    0.0000 C   0  0  0  0  0  0  0  0  0  0  0  0
    1.6490    7.2487    0.0000 C   0  0  0  0  0  0  0  0  0  0  0  0
    0.2787    7.8588    0.0000 C   0  0  0  0  0  0  0  0  0  0  0  0
   -0.9348    6.9771    0.0000 C   0  0  0  0  0  0  0  0  0  0  0  0
   -1.9916    3.1036    0.0000 C   0  0  0  0  0  0  0  0  0  0  0  0
   -0.7780    2.2220    0.0000 O   0  0  0  0  0  0  0  0  0  0  0  0
   -0.7500    1.2990    0.0000 N   0  0  0  0  0  0  0  0  0  0  0  0
    0.7500    1.2990    0.0000 N   0  0  0  0  0  0  0  0  0  0  0  0
  1  2  1  0
  2  3  1  0
  3  4  2  0
  4  5  1  0
  5  6  2  0
  6  7  1  0
  7  8  1  0
  8  9  2  0
  9 10  1  0
 10 11  2  0
 11 12  1  0
 12 13  2  0
 13 14  1  0
 14 15  2  0
 15 16  1  0
 16 17  2  0
 17 18  1  0
 18 19  2  0
 19 20  1  0
 20 21  2  0
 15 22  1  0
 22 23  2  0
  6 24  1  0
 24 25  2  0
 25  3  1  0
 11  7  1  0
 22 12  1  0
 21 16  1  0
M  END
>  <Title>  (249) 
idAAJOgen8

$$$$

     RDKit          2D

 28 28  0  0  0  0  0  0  0  0999 V2000
    8.4722   -1.2990    0.0000 N   0  0  0  0  0  0  0  0  0  0  0  0
    7.7222    0.0000    0.0000 C   0  0  0  0  0  0  0  0  0  0  0  0
    6.2222    0.0000    0.0000 C   0  0  0  0  0  0  0  0  0  0  0  0
    6.0414   -1.4891    0.0000 C   0  0  0  0  0  0  0  0  0  0  0  0
    5.5095   -2.8916    0.0000 C   0  0  0  0  0  0  0  0  0  0  0  0
    4.6574   -4.1261    0.0000 C   0  0  0  0  0  0  0  0  0  0  0  0
    3.5346   -5.1207    0.0000 C   0  0  0  0  0  0  0  0  0  0  0  0
    2.2064   -5.8178    0.0000 C   0  0  0  0  0  0  0  0  0  0  0  0
    0.7500   -6.1768    0.0000 C   0  0  0  0  0  0  0  0  0  0  0  0
   -0.7500   -6.1768    0.0000 C   0  0  0  0  0  0  0  0  0  0  0  0
   -2.2064   -5.8178    0.0000 C   0  0  0  0  0  0  0  0  0  0  0  0
   -3.5346   -5.1207    0.0000 C   0  0  0  0  0  0  0  0  0  0  0  0
   -4.6574   -4.1261    0.0000 C   0  0  0  0  0  0  0  0  0  0  0  0
   -5.5095   -2.8916    0.0000 C   0  0  0  0  0  0  0  0  0  0  0  0
   -6.0414   -1.4891    0.0000 C   0  0  0  0  0  0  0  0  0  0  0  0
   -6.2222    0.0000    0.0000 C   0  0  0  0  0  0  0  0  0  0  0  0
   -6.0414    1.4891    0.0000 C   0  0  0  0  0  0  0  0  0  0  0  0
   -5.5095    2.8916    0.0000 C   0  0  0  0  0  0  0  0  0  0  0  0
   -4.6574    4.1261    0.0000 C   0  0  0  0  0  0  0  0  0  0  0  0
   -3.5346    5.1207    0.0000 C   0  0  0  0  0  0  0  0  0  0  0  0
   -2.2064    5.8178    0.0000 C   0  0  0  0  0  0  0  0  0  0  0  0
   -0.7500    6.1768    0.0000 C   0  0  0  0  0  0  0  0  0  0  0  0
    0.7500    6.1768    0.0000 C   0  0  0  0  0  0  0  0  0  0  0  0
    2.2064    5.8178    0.0000 C   0  0  0  0  0  0  0  0  0  0  0  0
    3.5346    5.1207    0.0000 C   0  0  0  0  0  0  0  0  0  0  0  0
    4.6574    4.1261    0.0000 C   0  0  0  0  0  0  0  0  0  0  0  0
    5.5095    2.8916    0.0000 C   0  0  0  0  0  0  0  0  0  0  0  0
    6.0414    1.4891    0.0000 C   0  0  0  0  0  0  0  0  0  0  0  0
  1  2  1  0
  2  3  1  0
  3  4  2  0
  4  5  1  0
  5  6  2  0
  6  7  1  0
  7  8  2  0
  8  9  1  0
  9 10  2  0
 10 11  1  0
 11 12  2  0
 12 13  1  0
 13 14  2  0
 14 15  1  0
 15 16  2  0
 16 17  1  0
 17 18  2  0
 18 19  1  0
 19 20  2  0
 20 21  1  0
 21 22  2  0
 22 23  1  0
 23 24  2  0
 24 25  1  0
 25 26  2  0
 26 27  1  0
 27 28  2  0
 28  3  1  0
M  END
>  <Title>  (250) 
idAAJPgen8

$$$$

     RDKit          2D

 35 39  0  0  0  0  0  0  0  0999 V2000
   -0.8827   -2.2048    0.0000 C   0  0  0  0  0  0  0  0  0  0  0  0
   -1.7090   -0.9529    0.0000 C   0  0  0  0  0  0  0  0  0  0  0  0
   -3.2063   -1.0426    0.0000 C   0  0  0  0  0  0  0  0  0  0  0  0
   -4.0327    0.2093    0.0000 C   0  0  0  0  0  0  0  0  0  0  0  0
   -3.3617    1.5508    0.0000 C   0  0  0  0  0  0  0  0  0  0  0  0
   -4.1880    2.8027    0.0000 C   0  0  0  0  0  0  0  0  0  0  0  0
   -5.6865    2.8700    0.0000 N   0  0  0  0  0  0  0  0  0  0  0  0
   -6.0856    4.3159    0.0000 N   0  0  0  0  0  0  0  0  0  0  0  0
   -4.8337    5.1423    0.0000 N   0  0  0  0  0  0  0  0  0  0  0  0
   -3.6610    4.2070    0.0000 N   0  0  0  0  0  0  0  0  0  0  0  0
   -2.2150    4.6061    0.0000 C   0  0  0  0  0  0  0  0  0  0  0  0
   -1.6880    6.0104    0.0000 C   0  0  0  0  0  0  0  0  0  0  0  0
   -0.1895    5.9432    0.0000 C   0  0  0  0  0  0  0  0  0  0  0  0
    0.2096    4.4972    0.0000 C   0  0  0  0  0  0  0  0  0  0  0  0
    1.6139    3.9701    0.0000 C   0  0  0  0  0  0  0  0  0  0  0  0
    2.0130    2.5242    0.0000 N   0  0  0  0  0  0  0  0  0  0  0  0
    3.5115    2.4569    0.0000 N   0  0  0  0  0  0  0  0  0  0  0  0
    4.0385    3.8613    0.0000 N   0  0  0  0  0  0  0  0  0  0  0  0
    2.8658    4.7965    0.0000 N   0  0  0  0  0  0  0  0  0  0  0  0
    2.9331    6.2950    0.0000 C   0  0  0  0  0  0  0  0  0  0  0  0
    4.3124    6.8845    0.0000 C   0  0  0  0  0  0  0  0  0  0  0  0
    4.7114    8.3305    0.0000 C   0  0  0  0  0  0  0  0  0  0  0  0
    3.8298    9.5440    0.0000 C   0  0  0  0  0  0  0  0  0  0  0  0
    4.5406   10.8649    0.0000 C   0  0  0  0  0  0  0  0  0  0  0  0
    6.0399   10.9098    0.0000 O   0  0  0  0  0  0  0  0  0  0  0  0
    3.7520   12.1409    0.0000 N   0  0  0  0  0  0  0  0  0  0  0  0
    4.4628   13.4618    0.0000 O   0  0  0  0  0  0  0  0  0  0  0  0
    2.3313    9.6113    0.0000 C   0  0  0  0  0  0  0  0  0  0  0  0
    1.3444    8.4817    0.0000 C   0  0  0  0  0  0  0  0  0  0  0  0
    1.6122    7.0058    0.0000 N   0  0  0  0  0  0  0  0  0  0  0  0
   -1.0423    3.6709    0.0000 C   0  0  0  0  0  0  0  0  0  0  0  0
   -1.1096    2.1724    0.0000 O   0  0  0  0  0  0  0  0  0  0  0  0
   -1.8644    1.6405    0.0000 N   0  0  0  0  0  0  0  0  0  0  0  0
   -1.0380    0.3887    0.0000 C   0  0  0  0  0  0  0  0  0  0  0  0
    0.4593    0.4784    0.0000 O   0  0  0  0  0  0  0  0  0  0  0  0
  1  2  1  0
  2  3  2  0
  3  4  1  0
  4  5  2  0
  5  6  1  0
  6  7  2  0
  7  8  1  0
  8  9  2  0
  9 10  1  0
 10 11  1  0
 11 12  2  0
 12 13  1  0
 13 14  2  0
 14 15  1  0
 15 16  2  0
 16 17  1  0
 17 18  2  0
 18 19  1  0
 19 20  1  0
 20 21  1  0
 21 22  1  0
 22 23  1  0
 23 24  1  0
 24 25  2  0
 24 26  1  0
 26 27  1  0
 23 28  2  0
 28 29  1  0
 29 30  1  0
 14 31  1  0
 31 32  2  0
  5 33  1  0
 33 34  1  0
 34 35  2  0
 34  2  1  0
 10  6  1  0
 31 11  1  0
 19 15  1  0
 30 20  1  0
M  END
>  <Title>  (251) 
idAAJQgen8

$$$$

     RDKit          2D

 45 51  0  0  0  0  0  0  0  0999 V2000
    3.0000    0.0000    0.0000 C   0  0  0  0  0  0  0  0  0  0  0  0
    1.5000    0.0000    0.0000 C   0  0  0  0  0  0  0  0  0  0  0  0
    0.7500   -1.2990    0.0000 C   0  0  0  0  0  0  0  0  0  0  0  0
   -0.7500   -1.2990    0.0000 C   0  0  0  0  0  0  0  0  0  0  0  0
   -1.5000    0.0000    0.0000 C   0  0  0  0  0  0  0  0  0  0  0  0
   -3.0000    0.0000    0.0000 C   0  0  0  0  0  0  0  0  0  0  0  0
   -3.7500   -1.2990    0.0000 O   0  0  0  0  0  0  0  0  0  0  0  0
   -3.7500    1.2990    0.0000 N   0  0  0  0  0  0  0  0  0  0  0  0
   -5.2500    1.2990    0.0000 C   0  0  0  0  0  0  0  0  0  0  0  0
   -6.1317    0.0855    0.0000 N   0  0  0  0  0  0  0  0  0  0  0  0
   -7.5583    0.5490    0.0000 N   0  0  0  0  0  0  0  0  0  0  0  0
   -7.5583    2.0490    0.0000 N   0  0  0  0  0  0  0  0  0  0  0  0
   -6.1317    2.5126    0.0000 N   0  0  0  0  0  0  0  0  0  0  0  0
   -5.6682    3.9391    0.0000 C   0  0  0  0  0  0  0  0  0  0  0  0
   -4.2009    4.2510    0.0000 C   0  0  0  0  0  0  0  0  0  0  0  0
   -3.7374    5.6776    0.0000 C   0  0  0  0  0  0  0  0  0  0  0  0
   -4.7411    6.7923    0.0000 C   0  0  0  0  0  0  0  0  0  0  0  0
   -4.2776    8.2189    0.0000 C   0  0  0  0  0  0  0  0  0  0  0  0
   -5.1593    9.4324    0.0000 N   0  0  0  0  0  0  0  0  0  0  0  0
   -4.2776   10.6460    0.0000 N   0  0  0  0  0  0  0  0  0  0  0  0
   -2.8510   10.1824    0.0000 N   0  0  0  0  0  0  0  0  0  0  0  0
   -2.8510    8.6824    0.0000 N   0  0  0  0  0  0  0  0  0  0  0  0
   -1.6375    7.8008    0.0000 C   0  0  0  0  0  0  0  0  0  0  0  0
   -1.7943    6.3090    0.0000 C   0  0  0  0  0  0  0  0  0  0  0  0
   -0.5807    5.4273    0.0000 C   0  0  0  0  0  0  0  0  0  0  0  0
    0.7896    6.0374    0.0000 C   0  0  0  0  0  0  0  0  0  0  0  0
    2.0031    5.1557    0.0000 C   0  0  0  0  0  0  0  0  0  0  0  0
    1.8463    3.6639    0.0000 C   0  0  0  0  0  0  0  0  0  0  0  0
    3.0598    2.7823    0.0000 C   0  0  0  0  0  0  0  0  0  0  0  0
    4.4302    3.3924    0.0000 C   0  0  0  0  0  0  0  0  0  0  0  0
    4.5870    4.8841    0.0000 C   0  0  0  0  0  0  0  0  0  0  0  0
    3.3734    5.7658    0.0000 C   0  0  0  0  0  0  0  0  0  0  0  0
    0.9464    7.5292    0.0000 C   0  0  0  0  0  0  0  0  0  0  0  0
   -0.2671    8.4109    0.0000 C   0  0  0  0  0  0  0  0  0  0  0  0
   -0.1104    9.9026    0.0000 C   0  0  0  0  0  0  0  0  0  0  0  0
    1.2600   10.5127    0.0000 C   0  0  0  0  0  0  0  0  0  0  0  0
    1.4168   12.0045    0.0000 C   0  0  0  0  0  0  0  0  0  0  0  0
    0.2032   12.8862    0.0000 C   0  0  0  0  0  0  0  0  0  0  0  0
   -1.1671   12.2761    0.0000 C   0  0  0  0  0  0  0  0  0  0  0  0
   -1.3239   10.7843    0.0000 C   0  0  0  0  0  0  0  0  0  0  0  0
   -6.2083    6.4805    0.0000 C   0  0  0  0  0  0  0  0  0  0  0  0
   -6.6718    5.0539    0.0000 C   0  0  0  0  0  0  0  0  0  0  0  0
   -0.7500    1.2990    0.0000 C   0  0  0  0  0  0  0  0  0  0  0  0
   -1.5000    2.5981    0.0000 O   0  0  0  0  0  0  0  0  0  0  0  0
    0.7500    1.2990    0.0000 N   0  0  0  0  0  0  0  0  0  0  0  0
  1  2  1  0
  2  3  2  0
  3  4  1  0
  4  5  2  0
  5  6  1  0
  6  7  2  0
  6  8  1  0
  8  9  1  0
  9 10  2  0
 10 11  1  0
 11 12  2  0
 12 13  1  0
 13 14  1  0
 14 15  2  0
 15 16  1  0
 16 17  2  0
 17 18  1  0
 18 19  2  0
 19 20  1  0
 20 21  2  0
 21 22  1  0
 22 23  1  0
 23 24  2  0
 24 25  1  0
 25 26  2  0
 26 27  1  0
 27 28  2  0
 28 29  1  0
 29 30  2  0
 30 31  1  0
 31 32  2  0
 26 33  1  0
 33 34  2  0
 34 35  1  0
 35 36  2  0
 36 37  1  0
 37 38  2  0
 38 39  1  0
 39 40  2  0
 17 41  1  0
 41 42  2  0
  5 43  1  0
 43 44  2  0
 43 45  1  0
 45  2  1  0
 13  9  1  0
 42 14  1  0
 22 18  1  0
 34 23  1  0
 40 35  1  0
 32 27  1  0
M  END
>  <Title>  (252) 
idAAJRgen8

$$$$

     RDKit          2D

 54 62  0  0  0  0  0  0  0  0999 V2000
  -10.1624    4.2767    0.0000 C   0  0  0  0  0  0  0  0  0  0  0  0
   -8.9488    3.3950    0.0000 C   0  0  0  0  0  0  0  0  0  0  0  0
   -9.1056    1.9033    0.0000 C   0  0  0  0  0  0  0  0  0  0  0  0
   -7.8921    1.0216    0.0000 C   0  0  0  0  0  0  0  0  0  0  0  0
   -6.5218    1.6317    0.0000 C   0  0  0  0  0  0  0  0  0  0  0  0
   -5.3083    0.7500    0.0000 C   0  0  0  0  0  0  0  0  0  0  0  0
   -5.3083   -0.7500    0.0000 N   0  0  0  0  0  0  0  0  0  0  0  0
   -3.8817   -1.2135    0.0000 N   0  0  0  0  0  0  0  0  0  0  0  0
   -3.0000    0.0000    0.0000 N   0  0  0  0  0  0  0  0  0  0  0  0
   -3.8817    1.2135    0.0000 N   0  0  0  0  0  0  0  0  0  0  0  0
   -3.4182    2.6401    0.0000 C   0  0  0  0  0  0  0  0  0  0  0  0
   -4.2998    3.8536    0.0000 C   0  0  0  0  0  0  0  0  0  0  0  0
   -3.4182    5.0672    0.0000 N   0  0  0  0  0  0  0  0  0  0  0  0
   -1.9916    4.6036    0.0000 N   0  0  0  0  0  0  0  0  0  0  0  0
   -1.9916    3.1036    0.0000 N   0  0  0  0  0  0  0  0  0  0  0  0
   -0.7780    2.2220    0.0000 C   0  0  0  0  0  0  0  0  0  0  0  0
   -0.9348    0.7302    0.0000 C   0  0  0  0  0  0  0  0  0  0  0  0
    0.2787   -0.1515    0.0000 C   0  0  0  0  0  0  0  0  0  0  0  0
    1.6490    0.4586    0.0000 C   0  0  0  0  0  0  0  0  0  0  0  0
    2.8625   -0.4231    0.0000 C   0  0  0  0  0  0  0  0  0  0  0  0
    2.7057   -1.9149    0.0000 O   0  0  0  0  0  0  0  0  0  0  0  0
    4.2329    0.1870    0.0000 N   0  0  0  0  0  0  0  0  0  0  0  0
    5.4464   -0.6946    0.0000 C   0  0  0  0  0  0  0  0  0  0  0  0
    5.4464   -2.1946    0.0000 N   0  0  0  0  0  0  0  0  0  0  0  0
    6.8730   -2.6582    0.0000 N   0  0  0  0  0  0  0  0  0  0  0  0
    7.7546   -1.4446    0.0000 N   0  0  0  0  0  0  0  0  0  0  0  0
    6.8730   -0.2311    0.0000 N   0  0  0  0  0  0  0  0  0  0  0  0
    7.3365    1.1955    0.0000 C   0  0  0  0  0  0  0  0  0  0  0  0
    8.8037    1.5073    0.0000 C   0  0  0  0  0  0  0  0  0  0  0  0
    9.2672    2.9339    0.0000 C   0  0  0  0  0  0  0  0  0  0  0  0
    8.2635    4.0486    0.0000 C   0  0  0  0  0  0  0  0  0  0  0  0
    6.7963    3.7368    0.0000 C   0  0  0  0  0  0  0  0  0  0  0  0
    6.3328    2.3102    0.0000 C   0  0  0  0  0  0  0  0  0  0  0  0
    1.8058    1.9504    0.0000 C   0  0  0  0  0  0  0  0  0  0  0  0
    0.5923    2.8321    0.0000 C   0  0  0  0  0  0  0  0  0  0  0  0
    0.7491    4.3238    0.0000 C   0  0  0  0  0  0  0  0  0  0  0  0
    2.1194    4.9340    0.0000 C   0  0  0  0  0  0  0  0  0  0  0  0
    2.2762    6.4257    0.0000 C   0  0  0  0  0  0  0  0  0  0  0  0
    1.0627    7.3074    0.0000 C   0  0  0  0  0  0  0  0  0  0  0  0
    1.2194    8.7992    0.0000 C   0  0  0  0  0  0  0  0  0  0  0  0
    0.1047    9.8029    0.0000 N   0  0  0  0  0  0  0  0  0  0  0  0
    0.7148   11.1732    0.0000 N   0  0  0  0  0  0  0  0  0  0  0  0
    2.2066   11.0164    0.0000 N   0  0  0  0  0  0  0  0  0  0  0  0
    2.5185    9.5492    0.0000 N   0  0  0  0  0  0  0  0  0  0  0  0
    3.8888    8.9391    0.0000 C   0  0  0  0  0  0  0  0  0  0  0  0
    4.0456    7.4473    0.0000 C   0  0  0  0  0  0  0  0  0  0  0  0
    5.4159    6.8372    0.0000 C   0  0  0  0  0  0  0  0  0  0  0  0
    6.6294    7.7189    0.0000 C   0  0  0  0  0  0  0  0  0  0  0  0
    6.4726    9.2107    0.0000 C   0  0  0  0  0  0  0  0  0  0  0  0
    5.1023    9.8208    0.0000 C   0  0  0  0  0  0  0  0  0  0  0  0
   -0.3077    6.6973    0.0000 C   0  0  0  0  0  0  0  0  0  0  0  0
   -0.4645    5.2055    0.0000 C   0  0  0  0  0  0  0  0  0  0  0  0
   -6.3650    3.1235    0.0000 C   0  0  0  0  0  0  0  0  0  0  0  0
   -7.5785    4.0051    0.0000 C   0  0  0  0  0  0  0  0  0  0  0  0
  1  2  1  0
  2  3  2  0
  3  4  1  0
  4  5  2  0
  5  6  1  0
  6  7  2  0
  7  8  1  0
  8  9  2  0
  9 10  1  0
 10 11  1  0
 11 12  2  0
 12 13  1  0
 13 14  2  0
 14 15  1  0
 15 16  1  0
 16 17  2  0
 17 18  1  0
 18 19  2  0
 19 20  1  0
 20 21  2  0
 20 22  1  0
 22 23  1  0
 23 24  2  0
 24 25  1  0
 25 26  2  0
 26 27  1  0
 27 28  1  0
 28 29  2  0
 29 30  1  0
 30 31  2  0
 31 32  1  0
 32 33  2  0
 19 34  1  0
 34 35  2  0
 35 36  1  0
 36 37  2  0
 37 38  1  0
 38 39  2  0
 39 40  1  0
 40 41  2  0
 41 42  1  0
 42 43  2  0
 43 44  1  0
 44 45  1  0
 45 46  2  0
 46 47  1  0
 47 48  2  0
 48 49  1  0
 49 50  2  0
 39 51  1  0
 51 52  2  0
  5 53  1  0
 53 54  2  0
 54  2  1  0
 10  6  1  0
 15 11  1  0
 35 16  1  0
 52 36  1  0
 27 23  1  0
 33 28  1  0
 44 40  1  0
 50 45  1  0
M  END
>  <Title>  (253) 
idAAJSgen8

$$$$

     RDKit          2D

 46 51  0  0  0  0  0  0  0  0999 V2000
    6.8169   -2.5505    0.0000 N   0  0  0  0  0  0  0  0  0  0  0  0
    5.9905   -1.2987    0.0000 C   0  0  0  0  0  0  0  0  0  0  0  0
    6.6615    0.0429    0.0000 C   0  0  0  0  0  0  0  0  0  0  0  0
    5.8351    1.2947    0.0000 C   0  0  0  0  0  0  0  0  0  0  0  0
    4.3378    1.2050    0.0000 C   0  0  0  0  0  0  0  0  0  0  0  0
    3.5115    2.4569    0.0000 C   0  0  0  0  0  0  0  0  0  0  0  0
    4.0385    3.8613    0.0000 N   0  0  0  0  0  0  0  0  0  0  0  0
    2.8658    4.7965    0.0000 N   0  0  0  0  0  0  0  0  0  0  0  0
    1.6139    3.9701    0.0000 N   0  0  0  0  0  0  0  0  0  0  0  0
    2.0130    2.5242    0.0000 N   0  0  0  0  0  0  0  0  0  0  0  0
    1.0777    1.3515    0.0000 C   0  0  0  0  0  0  0  0  0  0  0  0
    1.7286    0.0000    0.0000 N   0  0  0  0  0  0  0  0  0  0  0  0
    1.0777   -1.3515    0.0000 C   0  0  0  0  0  0  0  0  0  0  0  0
   -0.3846   -1.6852    0.0000 C   0  0  0  0  0  0  0  0  0  0  0  0
   -1.5574   -0.7500    0.0000 C   0  0  0  0  0  0  0  0  0  0  0  0
   -2.9088   -1.4008    0.0000 C   0  0  0  0  0  0  0  0  0  0  0  0
   -3.1767   -2.8767    0.0000 N   0  0  0  0  0  0  0  0  0  0  0  0
   -4.6631   -3.0781    0.0000 N   0  0  0  0  0  0  0  0  0  0  0  0
   -5.3139   -1.7266    0.0000 N   0  0  0  0  0  0  0  0  0  0  0  0
   -4.2297   -0.6900    0.0000 N   0  0  0  0  0  0  0  0  0  0  0  0
   -4.4311    0.7964    0.0000 C   0  0  0  0  0  0  0  0  0  0  0  0
   -3.2445    1.7140    0.0000 C   0  0  0  0  0  0  0  0  0  0  0  0
   -3.4458    3.2004    0.0000 C   0  0  0  0  0  0  0  0  0  0  0  0
   -4.8338    3.7693    0.0000 C   0  0  0  0  0  0  0  0  0  0  0  0
   -6.0204    2.8517    0.0000 C   0  0  0  0  0  0  0  0  0  0  0  0
   -5.8190    1.3652    0.0000 C   0  0  0  0  0  0  0  0  0  0  0  0
   -1.5574    0.7500    0.0000 C   0  0  0  0  0  0  0  0  0  0  0  0
   -0.3846    1.6852    0.0000 C   0  0  0  0  0  0  0  0  0  0  0  0
   -0.7184    3.1476    0.0000 C   0  0  0  0  0  0  0  0  0  0  0  0
   -2.1518    3.5898    0.0000 C   0  0  0  0  0  0  0  0  0  0  0  0
   -2.4856    5.0522    0.0000 C   0  0  0  0  0  0  0  0  0  0  0  0
   -1.3860    6.0724    0.0000 C   0  0  0  0  0  0  0  0  0  0  0  0
   -1.7198    7.5348    0.0000 C   0  0  0  0  0  0  0  0  0  0  0  0
   -0.6202    8.5551    0.0000 O   0  0  0  0  0  0  0  0  0  0  0  0
   -3.1531    7.9769    0.0000 N   0  0  0  0  0  0  0  0  0  0  0  0
   -3.4869    9.4393    0.0000 O   0  0  0  0  0  0  0  0  0  0  0  0
    0.0474    5.6303    0.0000 C   0  0  0  0  0  0  0  0  0  0  0  0
    1.1469    6.6505    0.0000 C   0  0  0  0  0  0  0  0  0  0  0  0
    0.8132    8.1129    0.0000 O   0  0  0  0  0  0  0  0  0  0  0  0
    2.5803    6.2084    0.0000 N   0  0  0  0  0  0  0  0  0  0  0  0
    3.6799    7.2287    0.0000 O   0  0  0  0  0  0  0  0  0  0  0  0
    0.3812    4.1679    0.0000 C   0  0  0  0  0  0  0  0  0  0  0  0
    1.1771    4.1242    0.0000 O   0  0  0  0  0  0  0  0  0  0  0  0
    3.6668   -0.1365    0.0000 C   0  0  0  0  0  0  0  0  0  0  0  0
    2.2357   -0.5859    0.0000 O   0  0  0  0  0  0  0  0  0  0  0  0
    4.4932   -1.3884    0.0000 N   0  0  0  0  0  0  0  0  0  0  0  0
  1  2  1  0
  2  3  2  0
  3  4  1  0
  4  5  2  0
  5  6  1  0
  6  7  2  0
  7  8  1  0
  8  9  2  0
  9 10  1  0
 10 11  1  0
 11 12  1  0
 12 13  1  0
 13 14  1  0
 14 15  2  0
 15 16  1  0
 16 17  2  0
 17 18  1  0
 18 19  2  0
 19 20  1  0
 20 21  1  0
 21 22  2  0
 22 23  1  0
 23 24  2  0
 24 25  1  0
 25 26  2  0
 15 27  1  0
 27 28  2  0
 28 29  1  0
 29 30  2  0
 30 31  1  0
 31 32  2  0
 32 33  1  0
 33 34  2  0
 33 35  1  0
 35 36  1  0
 32 37  1  0
 37 38  1  0
 38 39  2  0
 38 40  1  0
 40 41  1  0
 37 42  1  0
 42 43  2  0
  5 44  1  0
 44 45  2  0
 44 46  1  0
 46  2  1  0
 10  6  1  0
 28 11  1  0
 42 29  1  0
 20 16  1  0
 26 21  1  0
M  END
>  <Title>  (254) 
idAAJTgen8

$$$$

     RDKit          2D

 42 47  0  0  0  0  0  0  0  0999 V2000
    3.7500   -1.2990    0.0000 C   0  0  0  0  0  0  0  0  0  0  0  0
    3.0000    0.0000    0.0000 O   0  0  0  0  0  0  0  0  0  0  0  0
    1.5000    0.0000    0.0000 C   0  0  0  0  0  0  0  0  0  0  0  0
    0.7500   -1.2990    0.0000 C   0  0  0  0  0  0  0  0  0  0  0  0
   -0.7500   -1.2990    0.0000 C   0  0  0  0  0  0  0  0  0  0  0  0
   -1.5000    0.0000    0.0000 C   0  0  0  0  0  0  0  0  0  0  0  0
   -3.0000    0.0000    0.0000 N   0  0  0  0  0  0  0  0  0  0  0  0
   -3.7500    1.2990    0.0000 N   0  0  0  0  0  0  0  0  0  0  0  0
   -5.2500    1.2990    0.0000 N   0  0  0  0  0  0  0  0  0  0  0  0
   -6.0000    0.0000    0.0000 N   0  0  0  0  0  0  0  0  0  0  0  0
   -5.2500   -1.2990    0.0000 N   0  0  0  0  0  0  0  0  0  0  0  0
   -3.7500   -1.2990    0.0000 N   0  0  0  0  0  0  0  0  0  0  0  0
   -3.0000   -2.5981    0.0000 C   0  0  0  0  0  0  0  0  0  0  0  0
   -1.5082   -2.7549    0.0000 C   0  0  0  0  0  0  0  0  0  0  0  0
   -1.1963   -4.2221    0.0000 C   0  0  0  0  0  0  0  0  0  0  0  0
   -2.4954   -4.9721    0.0000 C   0  0  0  0  0  0  0  0  0  0  0  0
   -2.6522   -6.4639    0.0000 C   0  0  0  0  0  0  0  0  0  0  0  0
   -1.4387   -7.3456    0.0000 O   0  0  0  0  0  0  0  0  0  0  0  0
   -4.0225   -7.0740    0.0000 N   0  0  0  0  0  0  0  0  0  0  0  0
   -4.1793   -8.5658    0.0000 C   0  0  0  0  0  0  0  0  0  0  0  0
   -2.9658   -9.4474    0.0000 C   0  0  0  0  0  0  0  0  0  0  0  0
   -3.1226  -10.9392    0.0000 N   0  0  0  0  0  0  0  0  0  0  0  0
   -4.4929  -11.5493    0.0000 N   0  0  0  0  0  0  0  0  0  0  0  0
   -5.7064  -10.6676    0.0000 N   0  0  0  0  0  0  0  0  0  0  0  0
   -5.5496   -9.1759    0.0000 N   0  0  0  0  0  0  0  0  0  0  0  0
   -6.7631   -8.2942    0.0000 C   0  0  0  0  0  0  0  0  0  0  0  0
   -6.6063   -6.8024    0.0000 C   0  0  0  0  0  0  0  0  0  0  0  0
   -7.8199   -5.9207    0.0000 C   0  0  0  0  0  0  0  0  0  0  0  0
   -9.1902   -6.5308    0.0000 C   0  0  0  0  0  0  0  0  0  0  0  0
   -9.3470   -8.0226    0.0000 N   0  0  0  0  0  0  0  0  0  0  0  0
   -8.1335   -8.9043    0.0000 C   0  0  0  0  0  0  0  0  0  0  0  0
   -8.2902  -10.3961    0.0000 C   0  0  0  0  0  0  0  0  0  0  0  0
   -9.6606  -11.0062    0.0000 C   0  0  0  0  0  0  0  0  0  0  0  0
   -9.8174  -12.4980    0.0000 C   0  0  0  0  0  0  0  0  0  0  0  0
   -8.6038  -13.3796    0.0000 C   0  0  0  0  0  0  0  0  0  0  0  0
   -7.2335  -12.7695    0.0000 C   0  0  0  0  0  0  0  0  0  0  0  0
   -7.0767  -11.2778    0.0000 C   0  0  0  0  0  0  0  0  0  0  0  0
   -3.6101   -3.9684    0.0000 C   0  0  0  0  0  0  0  0  0  0  0  0
   -5.0773   -4.2803    0.0000 O   0  0  0  0  0  0  0  0  0  0  0  0
   -0.7500    1.2990    0.0000 C   0  0  0  0  0  0  0  0  0  0  0  0
   -1.5000    2.5981    0.0000 O   0  0  0  0  0  0  0  0  0  0  0  0
    0.7500    1.2990    0.0000 N   0  0  0  0  0  0  0  0  0  0  0  0
  1  2  1  0
  2  3  1  0
  3  4  2  0
  4  5  1  0
  5  6  2  0
  6  7  1  0
  7  8  1  0
  8  9  2  0
  9 10  1  0
 10 11  2  0
 11 12  1  0
 12 13  1  0
 13 14  2  0
 14 15  1  0
 15 16  2  0
 16 17  1  0
 17 18  2  0
 17 19  1  0
 19 20  1  0
 20 21  1  0
 21 22  1  0
 22 23  1  0
 23 24  2  0
 24 25  1  0
 25 26  1  0
 26 27  2  0
 27 28  1  0
 28 29  2  0
 29 30  1  0
 30 31  2  0
 31 32  1  0
 32 33  2  0
 33 34  1  0
 34 35  2  0
 35 36  1  0
 36 37  2  0
 16 38  1  0
 38 39  2  0
  6 40  1  0
 40 41  2  0
 40 42  1  0
 42  3  1  0
 12  7  1  0
 38 13  1  0
 25 20  1  0
 31 26  1  0
 37 32  1  0
M  END
>  <Title>  (255) 
idAAJUgen8

$$$$

     RDKit          2D

 36 39  0  0  0  0  0  0  0  0999 V2000
    7.6784   -2.0340    0.0000 C   0  0  0  0  0  0  0  0  0  0  0  0
    6.4063   -1.2392    0.0000 C   0  0  0  0  0  0  0  0  0  0  0  0
    5.0155   -1.8011    0.0000 C   0  0  0  0  0  0  0  0  0  0  0  0
    4.0514   -0.6520    0.0000 C   0  0  0  0  0  0  0  0  0  0  0  0
    4.8462    0.6201    0.0000 C   0  0  0  0  0  0  0  0  0  0  0  0
    4.2843    2.0108    0.0000 C   0  0  0  0  0  0  0  0  0  0  0  0
    5.0792    3.2829    0.0000 N   0  0  0  0  0  0  0  0  0  0  0  0
    4.1150    4.4320    0.0000 N   0  0  0  0  0  0  0  0  0  0  0  0
    2.7243    3.8701    0.0000 N   0  0  0  0  0  0  0  0  0  0  0  0
    2.8289    2.3737    0.0000 N   0  0  0  0  0  0  0  0  0  0  0  0
    1.6798    1.4095    0.0000 C   0  0  0  0  0  0  0  0  0  0  0  0
    2.1929    0.0000    0.0000 C   0  0  0  0  0  0  0  0  0  0  0  0
    1.6798   -1.4095    0.0000 C   0  0  0  0  0  0  0  0  0  0  0  0
    0.3808   -2.1595    0.0000 C   0  0  0  0  0  0  0  0  0  0  0  0
    0.6413   -3.6368    0.0000 C   0  0  0  0  0  0  0  0  0  0  0  0
    2.0508   -4.1498    0.0000 O   0  0  0  0  0  0  0  0  0  0  0  0
   -0.5078   -4.6009    0.0000 N   0  0  0  0  0  0  0  0  0  0  0  0
   -0.2473   -6.0781    0.0000 O   0  0  0  0  0  0  0  0  0  0  0  0
   -1.0964   -1.8991    0.0000 C   0  0  0  0  0  0  0  0  0  0  0  0
   -1.8464   -3.1981    0.0000 C   0  0  0  0  0  0  0  0  0  0  0  0
   -2.0606   -0.7500    0.0000 N   0  0  0  0  0  0  0  0  0  0  0  0
   -2.0606    0.7500    0.0000 N   0  0  0  0  0  0  0  0  0  0  0  0
   -1.0964    1.8991    0.0000 N   0  0  0  0  0  0  0  0  0  0  0  0
    0.3808    2.1595    0.0000 N   0  0  0  0  0  0  0  0  0  0  0  0
    0.6413    3.6368    0.0000 C   0  0  0  0  0  0  0  0  0  0  0  0
    2.0508    4.1498    0.0000 C   0  0  0  0  0  0  0  0  0  0  0  0
    2.3113    5.6270    0.0000 C   0  0  0  0  0  0  0  0  0  0  0  0
    1.1622    6.5912    0.0000 C   0  0  0  0  0  0  0  0  0  0  0  0
    1.4227    8.0684    0.0000 C   0  0  0  0  0  0  0  0  0  0  0  0
    0.2736    9.0326    0.0000 O   0  0  0  0  0  0  0  0  0  0  0  0
    2.8322    8.5814    0.0000 N   0  0  0  0  0  0  0  0  0  0  0  0
    3.0927   10.0586    0.0000 O   0  0  0  0  0  0  0  0  0  0  0  0
   -0.2473    6.0781    0.0000 C   0  0  0  0  0  0  0  0  0  0  0  0
   -1.3964    7.0423    0.0000 O   0  0  0  0  0  0  0  0  0  0  0  0
   -0.5078    4.6009    0.0000 N   0  0  0  0  0  0  0  0  0  0  0  0
    6.3017    0.2572    0.0000 N   0  0  0  0  0  0  0  0  0  0  0  0
  1  2  1  0
  2  3  2  0
  3  4  1  0
  4  5  2  0
  5  6  1  0
  6  7  2  0
  7  8  1  0
  8  9  2  0
  9 10  1  0
 10 11  1  0
 11 12  2  0
 12 13  1  0
 13 14  2  0
 14 15  1  0
 15 16  2  0
 15 17  1  0
 17 18  1  0
 14 19  1  0
 19 20  1  0
 19 21  2  0
 21 22  1  0
 22 23  2  0
 23 24  1  0
 24 25  1  0
 25 26  2  0
 26 27  1  0
 27 28  2  0
 28 29  1  0
 29 30  2  0
 29 31  1  0
 31 32  1  0
 28 33  1  0
 33 34  2  0
 33 35  1  0
  5 36  1  0
 36  2  1  0
 10  6  1  0
 24 11  1  0
 35 25  1  0
M  END
>  <Title>  (256) 
idAAJVgen8

$$$$

     RDKit          2D

 46 52  0  0  0  0  0  0  0  0999 V2000
    3.2286   -0.0000    0.0000 C   0  0  0  0  0  0  0  0  0  0  0  0
    1.7286    0.0000    0.0000 C   0  0  0  0  0  0  0  0  0  0  0  0
    1.0777    1.3515    0.0000 C   0  0  0  0  0  0  0  0  0  0  0  0
   -0.3846    1.6852    0.0000 C   0  0  0  0  0  0  0  0  0  0  0  0
   -1.5574    0.7500    0.0000 C   0  0  0  0  0  0  0  0  0  0  0  0
   -1.5574   -0.7500    0.0000 C   0  0  0  0  0  0  0  0  0  0  0  0
   -2.9088   -1.4008    0.0000 C   0  0  0  0  0  0  0  0  0  0  0  0
   -3.1767   -2.8767    0.0000 N   0  0  0  0  0  0  0  0  0  0  0  0
   -4.6631   -3.0781    0.0000 N   0  0  0  0  0  0  0  0  0  0  0  0
   -5.3139   -1.7266    0.0000 N   0  0  0  0  0  0  0  0  0  0  0  0
   -4.2297   -0.6900    0.0000 N   0  0  0  0  0  0  0  0  0  0  0  0
   -4.4311    0.7964    0.0000 C   0  0  0  0  0  0  0  0  0  0  0  0
   -3.2445    1.7140    0.0000 C   0  0  0  0  0  0  0  0  0  0  0  0
   -3.4458    3.2004    0.0000 C   0  0  0  0  0  0  0  0  0  0  0  0
   -4.8338    3.7693    0.0000 C   0  0  0  0  0  0  0  0  0  0  0  0
   -6.0204    2.8517    0.0000 C   0  0  0  0  0  0  0  0  0  0  0  0
   -5.8190    1.3652    0.0000 C   0  0  0  0  0  0  0  0  0  0  0  0
   -7.0057    0.4477    0.0000 C   0  0  0  0  0  0  0  0  0  0  0  0
   -6.9608   -1.0517    0.0000 C   0  0  0  0  0  0  0  0  0  0  0  0
   -8.3729   -1.5577    0.0000 C   0  0  0  0  0  0  0  0  0  0  0  0
   -9.2904   -0.3711    0.0000 C   0  0  0  0  0  0  0  0  0  0  0  0
   -8.4455    0.8683    0.0000 N   0  0  0  0  0  0  0  0  0  0  0  0
   -8.9515    2.2804    0.0000 C   0  0  0  0  0  0  0  0  0  0  0  0
   -7.9816    3.4246    0.0000 C   0  0  0  0  0  0  0  0  0  0  0  0
   -8.4876    4.8367    0.0000 C   0  0  0  0  0  0  0  0  0  0  0  0
   -9.9634    5.1045    0.0000 C   0  0  0  0  0  0  0  0  0  0  0  0
  -10.4694    6.5166    0.0000 C   0  0  0  0  0  0  0  0  0  0  0  0
  -11.9453    6.7844    0.0000 O   0  0  0  0  0  0  0  0  0  0  0  0
   -9.4995    7.6609    0.0000 N   0  0  0  0  0  0  0  0  0  0  0  0
  -10.0055    9.0729    0.0000 C   0  0  0  0  0  0  0  0  0  0  0  0
  -11.4454    9.4936    0.0000 N   0  0  0  0  0  0  0  0  0  0  0  0
  -11.4902   10.9929    0.0000 N   0  0  0  0  0  0  0  0  0  0  0  0
  -10.0781   11.4989    0.0000 N   0  0  0  0  0  0  0  0  0  0  0  0
   -9.1606   10.3123    0.0000 N   0  0  0  0  0  0  0  0  0  0  0  0
   -7.6612   10.3572    0.0000 C   0  0  0  0  0  0  0  0  0  0  0  0
   -7.0511   11.7275    0.0000 C   0  0  0  0  0  0  0  0  0  0  0  0
   -5.5994   12.1049    0.0000 C   0  0  0  0  0  0  0  0  0  0  0  0
   -4.3992   11.2051    0.0000 C   0  0  0  0  0  0  0  0  0  0  0  0
   -4.3543    9.7058    0.0000 C   0  0  0  0  0  0  0  0  0  0  0  0
   -5.4985    8.7359    0.0000 C   0  0  0  0  0  0  0  0  0  0  0  0
   -6.9703    9.0258    0.0000 C   0  0  0  0  0  0  0  0  0  0  0  0
  -10.9333    3.9603    0.0000 C   0  0  0  0  0  0  0  0  0  0  0  0
  -10.4274    2.5482    0.0000 C   0  0  0  0  0  0  0  0  0  0  0  0
   -0.3846   -1.6852    0.0000 C   0  0  0  0  0  0  0  0  0  0  0  0
    1.0777   -1.3515    0.0000 C   0  0  0  0  0  0  0  0  0  0  0  0
    2.0130   -2.5242    0.0000 N   0  0  0  0  0  0  0  0  0  0  0  0
  1  2  1  0
  2  3  2  0
  3  4  1  0
  4  5  2  0
  5  6  2  0
  6  7  1  0
  7  8  2  0
  8  9  1  0
  9 10  2  0
 10 11  1  0
 11 12  1  0
 12 13  1  0
 13 14  1  0
 14 15  1  0
 15 16  1  0
 16 17  1  0
 17 18  1  0
 18 19  2  0
 19 20  1  0
 20 21  2  0
 21 22  1  0
 22 23  1  0
 23 24  2  0
 24 25  1  0
 25 26  2  0
 26 27  1  0
 27 28  2  0
 27 29  1  0
 29 30  1  0
 30 31  2  0
 31 32  1  0
 32 33  2  0
 33 34  1  0
 34 35  1  0
 35 36  1  0
 36 37  2  0
 37 38  1  0
 38 39  2  0
 39 40  1  0
 40 41  1  0
 26 42  1  0
 42 43  2  0
  6 44  1  0
 44 45  2  0
 45 46  1  0
 45  2  1  0
 11  7  1  0
 17 12  1  0
 22 18  1  0
 43 23  1  0
 34 30  1  0
 41 35  1  0
M  END
>  <Title>  (257) 
idAAJWgen8

$$$$

     RDKit          2D

 18 18  0  0  0  0  0  0  0  0999 V2000
    7.9598   -2.5981    0.0000 C   0  0  0  0  0  0  0  0  0  0  0  0
    6.4598   -2.5981    0.0000 C   0  0  0  0  0  0  0  0  0  0  0  0
    5.7098   -1.2990    0.0000 C   0  0  0  0  0  0  0  0  0  0  0  0
    4.2098   -1.2990    0.0000 O   0  0  0  0  0  0  0  0  0  0  0  0
    3.4598   -0.0000    0.0000 C   0  0  0  0  0  0  0  0  0  0  0  0
    4.2098    1.2990    0.0000 O   0  0  0  0  0  0  0  0  0  0  0  0
    1.9598    0.0000    0.0000 C   0  0  0  0  0  0  0  0  0  0  0  0
    1.3858   -1.3858    0.0000 C   0  0  0  0  0  0  0  0  0  0  0  0
   -0.0000   -1.9598    0.0000 C   0  0  0  0  0  0  0  0  0  0  0  0
   -1.3858   -1.3858    0.0000 C   0  0  0  0  0  0  0  0  0  0  0  0
   -1.9598    0.0000    0.0000 C   0  0  0  0  0  0  0  0  0  0  0  0
   -1.3858    1.3858    0.0000 C   0  0  0  0  0  0  0  0  0  0  0  0
   -2.4465    2.4465    0.0000 C   0  0  0  0  0  0  0  0  0  0  0  0
   -3.8954    2.0583    0.0000 O   0  0  0  0  0  0  0  0  0  0  0  0
   -2.0583    3.8954    0.0000 N   0  0  0  0  0  0  0  0  0  0  0  0
   -3.1189    4.9560    0.0000 O   0  0  0  0  0  0  0  0  0  0  0  0
    0.0000    1.9598    0.0000 C   0  0  0  0  0  0  0  0  0  0  0  0
    1.3858    1.3858    0.0000 C   0  0  0  0  0  0  0  0  0  0  0  0
  1  2  2  0
  2  3  1  0
  3  4  1  0
  4  5  1  0
  5  6  2  0
  5  7  1  0
  7  8  1  0
  8  9  1  0
  9 10  1  0
 10 11  1  0
 11 12  1  0
 12 13  1  0
 13 14  2  0
 13 15  1  0
 15 16  1  0
 12 17  1  0
 17 18  1  0
 18  7  1  0
M  END
>  <Title>  (258) 
idAAJXgen8

$$$$

     RDKit          2D

 17 17  0  0  0  0  0  0  0  0999 V2000
    5.3444    0.0000    0.0000 C   0  0  0  0  0  0  0  0  0  0  0  0
    3.8444    0.0000    0.0000 C   0  0  0  0  0  0  0  0  0  0  0  0
    3.5517   -1.4712    0.0000 C   0  0  0  0  0  0  0  0  0  0  0  0
    2.7184   -2.7184    0.0000 C   0  0  0  0  0  0  0  0  0  0  0  0
    1.4712   -3.5517    0.0000 C   0  0  0  0  0  0  0  0  0  0  0  0
   -0.0000   -3.8444    0.0000 C   0  0  0  0  0  0  0  0  0  0  0  0
   -1.4712   -3.5517    0.0000 C   0  0  0  0  0  0  0  0  0  0  0  0
   -2.7184   -2.7184    0.0000 C   0  0  0  0  0  0  0  0  0  0  0  0
   -3.5517   -1.4712    0.0000 C   0  0  0  0  0  0  0  0  0  0  0  0
   -3.8444    0.0000    0.0000 C   0  0  0  0  0  0  0  0  0  0  0  0
   -3.5517    1.4712    0.0000 C   0  0  0  0  0  0  0  0  0  0  0  0
   -2.7184    2.7184    0.0000 C   0  0  0  0  0  0  0  0  0  0  0  0
   -1.4712    3.5517    0.0000 C   0  0  0  0  0  0  0  0  0  0  0  0
    0.0000    3.8444    0.0000 C   0  0  0  0  0  0  0  0  0  0  0  0
    1.4712    3.5517    0.0000 C   0  0  0  0  0  0  0  0  0  0  0  0
    2.7184    2.7184    0.0000 C   0  0  0  0  0  0  0  0  0  0  0  0
    3.5517    1.4712    0.0000 C   0  0  0  0  0  0  0  0  0  0  0  0
  1  2  1  0
  2  3  2  0
  3  4  1  0
  4  5  2  0
  5  6  1  0
  6  7  2  0
  7  8  1  0
  8  9  2  0
  9 10  1  0
 10 11  2  0
 11 12  1  0
 12 13  2  0
 13 14  1  0
 14 15  2  0
 15 16  1  0
 16 17  2  0
 17  2  1  0
M  END
>  <Title>  (259) 
idAAJYgen8

$$$$

     RDKit          2D

 35 39  0  0  0  0  0  0  0  0999 V2000
   -6.0000   -5.1962    0.0000 C   0  0  0  0  0  0  0  0  0  0  0  0
   -5.2500   -3.8971    0.0000 C   0  0  0  0  0  0  0  0  0  0  0  0
   -6.0000   -2.5981    0.0000 C   0  0  0  0  0  0  0  0  0  0  0  0
   -5.2500   -1.2990    0.0000 C   0  0  0  0  0  0  0  0  0  0  0  0
   -3.7500   -1.2990    0.0000 C   0  0  0  0  0  0  0  0  0  0  0  0
   -3.0000    0.0000    0.0000 C   0  0  0  0  0  0  0  0  0  0  0  0
   -1.5000    0.0000    0.0000 O   0  0  0  0  0  0  0  0  0  0  0  0
   -3.7500    1.2990    0.0000 N   0  0  0  0  0  0  0  0  0  0  0  0
   -5.2500    1.2990    0.0000 C   0  0  0  0  0  0  0  0  0  0  0  0
   -6.1317    0.0855    0.0000 N   0  0  0  0  0  0  0  0  0  0  0  0
   -7.5583    0.5490    0.0000 N   0  0  0  0  0  0  0  0  0  0  0  0
   -7.5583    2.0490    0.0000 N   0  0  0  0  0  0  0  0  0  0  0  0
   -6.1317    2.5126    0.0000 N   0  0  0  0  0  0  0  0  0  0  0  0
   -5.6682    3.9391    0.0000 C   0  0  0  0  0  0  0  0  0  0  0  0
   -6.5498    5.1527    0.0000 C   0  0  0  0  0  0  0  0  0  0  0  0
   -5.6682    6.3662    0.0000 C   0  0  0  0  0  0  0  0  0  0  0  0
   -4.2416    5.9027    0.0000 C   0  0  0  0  0  0  0  0  0  0  0  0
   -3.0280    6.7844    0.0000 C   0  0  0  0  0  0  0  0  0  0  0  0
   -3.0280    8.2844    0.0000 N   0  0  0  0  0  0  0  0  0  0  0  0
   -1.6015    8.7479    0.0000 N   0  0  0  0  0  0  0  0  0  0  0  0
   -0.7198    7.5344    0.0000 N   0  0  0  0  0  0  0  0  0  0  0  0
   -1.6015    6.3208    0.0000 N   0  0  0  0  0  0  0  0  0  0  0  0
   -1.1379    4.8942    0.0000 C   0  0  0  0  0  0  0  0  0  0  0  0
   -2.1416    3.7795    0.0000 C   0  0  0  0  0  0  0  0  0  0  0  0
   -1.6781    2.3529    0.0000 C   0  0  0  0  0  0  0  0  0  0  0  0
   -0.2109    2.0411    0.0000 C   0  0  0  0  0  0  0  0  0  0  0  0
    0.2526    0.6145    0.0000 C   0  0  0  0  0  0  0  0  0  0  0  0
    0.7928    3.1558    0.0000 C   0  0  0  0  0  0  0  0  0  0  0  0
    2.2600    2.8439    0.0000 O   0  0  0  0  0  0  0  0  0  0  0  0
    0.3293    4.5824    0.0000 N   0  0  0  0  0  0  0  0  0  0  0  0
   -4.2416    4.4027    0.0000 C   0  0  0  0  0  0  0  0  0  0  0  0
   -3.0280    3.5210    0.0000 O   0  0  0  0  0  0  0  0  0  0  0  0
   -3.0000   -2.5981    0.0000 C   0  0  0  0  0  0  0  0  0  0  0  0
   -1.5000   -2.5981    0.0000 O   0  0  0  0  0  0  0  0  0  0  0  0
   -3.7500   -3.8971    0.0000 N   0  0  0  0  0  0  0  0  0  0  0  0
  1  2  1  0
  2  3  2  0
  3  4  1  0
  4  5  2  0
  5  6  1  0
  6  7  2  0
  6  8  1  0
  8  9  1  0
  9 10  2  0
 10 11  1  0
 11 12  2  0
 12 13  1  0
 13 14  1  0
 14 15  2  0
 15 16  1  0
 16 17  2  0
 17 18  1  0
 18 19  2  0
 19 20  1  0
 20 21  2  0
 21 22  1  0
 22 23  1  0
 23 24  2  0
 24 25  1  0
 25 26  2  0
 26 27  1  0
 26 28  1  0
 28 29  2  0
 28 30  1  0
 17 31  1  0
 31 32  2  0
  5 33  1  0
 33 34  2  0
 33 35  1  0
 35  2  1  0
 13  9  1  0
 31 14  1  0
 22 18  1  0
 30 23  1  0
M  END
>  <Title>  (260) 
idAAJZgen8

$$$$

     RDKit          2D

 49 56  0  0  0  0  0  0  0  0999 V2000
    3.0000    0.0000    0.0000 C   0  0  0  0  0  0  0  0  0  0  0  0
    1.5000    0.0000    0.0000 C   0  0  0  0  0  0  0  0  0  0  0  0
    0.7500   -1.2990    0.0000 C   0  0  0  0  0  0  0  0  0  0  0  0
   -0.7500   -1.2990    0.0000 C   0  0  0  0  0  0  0  0  0  0  0  0
   -1.5000    0.0000    0.0000 C   0  0  0  0  0  0  0  0  0  0  0  0
   -3.0000    0.0000    0.0000 C   0  0  0  0  0  0  0  0  0  0  0  0
   -3.7500    1.2990    0.0000 C   0  0  0  0  0  0  0  0  0  0  0  0
   -5.2500    1.2990    0.0000 C   0  0  0  0  0  0  0  0  0  0  0  0
   -6.0000    2.5981    0.0000 C   0  0  0  0  0  0  0  0  0  0  0  0
   -5.3899    3.9684    0.0000 N   0  0  0  0  0  0  0  0  0  0  0  0
   -6.5046    4.9721    0.0000 N   0  0  0  0  0  0  0  0  0  0  0  0
   -7.8037    4.2221    0.0000 N   0  0  0  0  0  0  0  0  0  0  0  0
   -7.4918    2.7549    0.0000 N   0  0  0  0  0  0  0  0  0  0  0  0
   -8.4955    1.6402    0.0000 C   0  0  0  0  0  0  0  0  0  0  0  0
   -8.0320    0.2136    0.0000 C   0  0  0  0  0  0  0  0  0  0  0  0
   -9.0356   -0.9012    0.0000 C   0  0  0  0  0  0  0  0  0  0  0  0
  -10.5029   -0.5893    0.0000 C   0  0  0  0  0  0  0  0  0  0  0  0
  -10.9664    0.8373    0.0000 C   0  0  0  0  0  0  0  0  0  0  0  0
   -9.9627    1.9520    0.0000 C   0  0  0  0  0  0  0  0  0  0  0  0
   -6.0000    0.0000    0.0000 C   0  0  0  0  0  0  0  0  0  0  0  0
   -5.2500   -1.2990    0.0000 C   0  0  0  0  0  0  0  0  0  0  0  0
   -3.7500   -1.2990    0.0000 C   0  0  0  0  0  0  0  0  0  0  0  0
   -3.0000   -2.5981    0.0000 N   0  0  0  0  0  0  0  0  0  0  0  0
   -1.5082   -2.7549    0.0000 N   0  0  0  0  0  0  0  0  0  0  0  0
   -1.1963   -4.2221    0.0000 N   0  0  0  0  0  0  0  0  0  0  0  0
   -2.4954   -4.9721    0.0000 N   0  0  0  0  0  0  0  0  0  0  0  0
   -3.6101   -3.9684    0.0000 C   0  0  0  0  0  0  0  0  0  0  0  0
   -5.0773   -4.2803    0.0000 C   0  0  0  0  0  0  0  0  0  0  0  0
   -6.0810   -3.1655    0.0000 C   0  0  0  0  0  0  0  0  0  0  0  0
   -7.5482   -3.4774    0.0000 C   0  0  0  0  0  0  0  0  0  0  0  0
   -8.0118   -4.9040    0.0000 C   0  0  0  0  0  0  0  0  0  0  0  0
   -9.4790   -5.2159    0.0000 C   0  0  0  0  0  0  0  0  0  0  0  0
   -7.0081   -6.0187    0.0000 N   0  0  0  0  0  0  0  0  0  0  0  0
   -5.5409   -5.7068    0.0000 C   0  0  0  0  0  0  0  0  0  0  0  0
   -4.5372   -6.8216    0.0000 O   0  0  0  0  0  0  0  0  0  0  0  0
   -0.7500    1.2990    0.0000 C   0  0  0  0  0  0  0  0  0  0  0  0
   -1.5000    2.5981    0.0000 C   0  0  0  0  0  0  0  0  0  0  0  0
   -2.9918    2.7549    0.0000 C   0  0  0  0  0  0  0  0  0  0  0  0
   -3.3037    4.2221    0.0000 C   0  0  0  0  0  0  0  0  0  0  0  0
   -2.0046    4.9721    0.0000 C   0  0  0  0  0  0  0  0  0  0  0  0
   -1.8478    6.4639    0.0000 C   0  0  0  0  0  0  0  0  0  0  0  0
   -0.4775    7.0740    0.0000 C   0  0  0  0  0  0  0  0  0  0  0  0
   -0.3207    8.5658    0.0000 C   0  0  0  0  0  0  0  0  0  0  0  0
   -1.5342    9.4474    0.0000 C   0  0  0  0  0  0  0  0  0  0  0  0
   -2.9046    8.8373    0.0000 C   0  0  0  0  0  0  0  0  0  0  0  0
   -3.0613    7.3456    0.0000 C   0  0  0  0  0  0  0  0  0  0  0  0
   -0.8899    3.9684    0.0000 C   0  0  0  0  0  0  0  0  0  0  0  0
    0.5773    4.2803    0.0000 O   0  0  0  0  0  0  0  0  0  0  0  0
    0.7500    1.2990    0.0000 C   0  0  0  0  0  0  0  0  0  0  0  0
  1  2  1  0
  2  3  2  0
  3  4  1  0
  4  5  2  0
  5  6  1  0
  6  7  2  0
  7  8  1  0
  8  9  1  0
  9 10  2  0
 10 11  1  0
 11 12  2  0
 12 13  1  0
 13 14  1  0
 14 15  2  0
 15 16  1  0
 16 17  2  0
 17 18  1  0
 18 19  2  0
  8 20  2  0
 20 21  1  0
 21 22  2  0
 22 23  1  0
 23 24  1  0
 24 25  2  0
 25 26  1  0
 26 27  2  0
 27 28  1  0
 28 29  2  0
 29 30  1  0
 30 31  2  0
 31 32  1  0
 31 33  1  0
 33 34  1  0
 34 35  2  0
  5 36  1  0
 36 37  1  0
 37 38  2  0
 38 39  1  0
 39 40  2  0
 40 41  1  0
 41 42  2  0
 42 43  1  0
 43 44  2  0
 44 45  1  0
 45 46  2  0
 40 47  1  0
 47 48  2  0
 36 49  2  0
 49  2  1  0
 22  6  1  0
 27 23  1  0
 34 28  1  0
 47 37  1  0
 13  9  1  0
 19 14  1  0
 46 41  1  0
M  END
>  <Title>  (261) 
idAAKAgen8

$$$$

     RDKit          2D

 41 47  0  0  0  0  0  0  0  0999 V2000
    3.9955   -1.6402    0.0000 O   0  0  0  0  0  0  0  0  0  0  0  0
    2.9918   -2.7549    0.0000 C   0  0  0  0  0  0  0  0  0  0  0  0
    1.5000   -2.5981    0.0000 C   0  0  0  0  0  0  0  0  0  0  0  0
    0.7500   -1.2990    0.0000 C   0  0  0  0  0  0  0  0  0  0  0  0
    1.5000    0.0000    0.0000 C   0  0  0  0  0  0  0  0  0  0  0  0
    0.7500    1.2990    0.0000 C   0  0  0  0  0  0  0  0  0  0  0  0
    1.5000    2.5981    0.0000 C   0  0  0  0  0  0  0  0  0  0  0  0
    3.0000    2.5981    0.0000 C   0  0  0  0  0  0  0  0  0  0  0  0
    3.7500    3.8971    0.0000 C   0  0  0  0  0  0  0  0  0  0  0  0
    3.0000    5.1962    0.0000 C   0  0  0  0  0  0  0  0  0  0  0  0
    1.5000    5.1962    0.0000 C   0  0  0  0  0  0  0  0  0  0  0  0
    0.7500    3.8971    0.0000 C   0  0  0  0  0  0  0  0  0  0  0  0
   -0.7500    1.2990    0.0000 C   0  0  0  0  0  0  0  0  0  0  0  0
   -1.5000    0.0000    0.0000 C   0  0  0  0  0  0  0  0  0  0  0  0
   -0.7500   -1.2990    0.0000 C   0  0  0  0  0  0  0  0  0  0  0  0
   -1.5000   -2.5981    0.0000 N   0  0  0  0  0  0  0  0  0  0  0  0
   -0.8899   -3.9684    0.0000 N   0  0  0  0  0  0  0  0  0  0  0  0
   -2.0046   -4.9721    0.0000 N   0  0  0  0  0  0  0  0  0  0  0  0
   -3.3037   -4.2221    0.0000 N   0  0  0  0  0  0  0  0  0  0  0  0
   -2.9918   -2.7549    0.0000 C   0  0  0  0  0  0  0  0  0  0  0  0
   -3.9955   -1.6402    0.0000 C   0  0  0  0  0  0  0  0  0  0  0  0
   -3.5320   -0.2136    0.0000 C   0  0  0  0  0  0  0  0  0  0  0  0
   -4.5356    0.9012    0.0000 C   0  0  0  0  0  0  0  0  0  0  0  0
   -6.0029    0.5893    0.0000 C   0  0  0  0  0  0  0  0  0  0  0  0
   -7.0066    1.7040    0.0000 O   0  0  0  0  0  0  0  0  0  0  0  0
   -6.4664   -0.8373    0.0000 C   0  0  0  0  0  0  0  0  0  0  0  0
   -5.4627   -1.9520    0.0000 C   0  0  0  0  0  0  0  0  0  0  0  0
    0.8899   -3.9684    0.0000 C   0  0  0  0  0  0  0  0  0  0  0  0
    2.0046   -4.9721    0.0000 C   0  0  0  0  0  0  0  0  0  0  0  0
    3.3037   -4.2221    0.0000 C   0  0  0  0  0  0  0  0  0  0  0  0
    4.6740   -4.8322    0.0000 C   0  0  0  0  0  0  0  0  0  0  0  0
    5.9730   -4.0822    0.0000 N   0  0  0  0  0  0  0  0  0  0  0  0
    7.0877   -5.0859    0.0000 N   0  0  0  0  0  0  0  0  0  0  0  0
    6.4776   -6.4562    0.0000 N   0  0  0  0  0  0  0  0  0  0  0  0
    4.9858   -6.2994    0.0000 N   0  0  0  0  0  0  0  0  0  0  0  0
    3.9821   -7.4141    0.0000 C   0  0  0  0  0  0  0  0  0  0  0  0
    2.5149   -7.1023    0.0000 C   0  0  0  0  0  0  0  0  0  0  0  0
    1.5112   -8.2170    0.0000 C   0  0  0  0  0  0  0  0  0  0  0  0
    1.9747   -9.6436    0.0000 C   0  0  0  0  0  0  0  0  0  0  0  0
    3.4420   -9.9554    0.0000 C   0  0  0  0  0  0  0  0  0  0  0  0
    4.4457   -8.8407    0.0000 C   0  0  0  0  0  0  0  0  0  0  0  0
  1  2  2  0
  2  3  1  0
  3  4  1  0
  4  5  2  0
  5  6  1  0
  6  7  1  0
  7  8  2  0
  8  9  1  0
  9 10  2  0
 10 11  1  0
 11 12  2  0
  6 13  2  0
 13 14  1  0
 14 15  2  0
 15 16  1  0
 16 17  1  0
 17 18  2  0
 18 19  1  0
 19 20  2  0
 20 21  1  0
 21 22  2  0
 22 23  1  0
 23 24  2  0
 24 25  1  0
 24 26  1  0
 26 27  1  0
  3 28  2  0
 28 29  1  0
 29 30  2  0
 30 31  1  0
 31 32  2  0
 32 33  1  0
 33 34  2  0
 34 35  1  0
 35 36  1  0
 36 37  2  0
 37 38  1  0
 38 39  2  0
 39 40  1  0
 40 41  2  0
 30  2  1  0
 35 31  1  0
 41 36  1  0
 15  4  1  0
 20 16  1  0
 27 21  1  0
 12  7  1  0
M  END
>  <Title>  (262) 
idAAKBgen8

$$$$

     RDKit          2D

 42 48  0  0  0  0  0  0  0  0999 V2000
    0.8311   10.2038    0.0000 C   0  0  0  0  0  0  0  0  0  0  0  0
   -0.5392    9.5937    0.0000 C   0  0  0  0  0  0  0  0  0  0  0  0
   -1.7527   10.4753    0.0000 C   0  0  0  0  0  0  0  0  0  0  0  0
   -3.1230    9.8652    0.0000 C   0  0  0  0  0  0  0  0  0  0  0  0
   -3.2798    8.3735    0.0000 C   0  0  0  0  0  0  0  0  0  0  0  0
   -4.6502    7.7634    0.0000 C   0  0  0  0  0  0  0  0  0  0  0  0
   -5.9492    8.5134    0.0000 N   0  0  0  0  0  0  0  0  0  0  0  0
   -7.0639    7.5097    0.0000 N   0  0  0  0  0  0  0  0  0  0  0  0
   -6.4538    6.1393    0.0000 N   0  0  0  0  0  0  0  0  0  0  0  0
   -4.9620    6.2961    0.0000 N   0  0  0  0  0  0  0  0  0  0  0  0
   -3.9583    5.1814    0.0000 C   0  0  0  0  0  0  0  0  0  0  0  0
   -2.4911    5.4933    0.0000 N   0  0  0  0  0  0  0  0  0  0  0  0
   -1.4874    4.3786    0.0000 N   0  0  0  0  0  0  0  0  0  0  0  0
   -1.9509    2.9520    0.0000 N   0  0  0  0  0  0  0  0  0  0  0  0
   -3.4182    2.6401    0.0000 N   0  0  0  0  0  0  0  0  0  0  0  0
   -4.4218    3.7548    0.0000 N   0  0  0  0  0  0  0  0  0  0  0  0
   -5.8891    3.4430    0.0000 C   0  0  0  0  0  0  0  0  0  0  0  0
   -6.8928    4.5577    0.0000 C   0  0  0  0  0  0  0  0  0  0  0  0
   -8.3600    4.2458    0.0000 C   0  0  0  0  0  0  0  0  0  0  0  0
   -8.8235    2.8192    0.0000 C   0  0  0  0  0  0  0  0  0  0  0  0
   -7.8198    1.7045    0.0000 C   0  0  0  0  0  0  0  0  0  0  0  0
   -6.3526    2.0164    0.0000 C   0  0  0  0  0  0  0  0  0  0  0  0
   -5.3489    0.9017    0.0000 C   0  0  0  0  0  0  0  0  0  0  0  0
   -5.8124   -0.5249    0.0000 C   0  0  0  0  0  0  0  0  0  0  0  0
   -4.8087   -1.6396    0.0000 C   0  0  0  0  0  0  0  0  0  0  0  0
   -3.3415   -1.3278    0.0000 C   0  0  0  0  0  0  0  0  0  0  0  0
   -2.3378   -2.4425    0.0000 C   0  0  0  0  0  0  0  0  0  0  0  0
   -2.8013   -3.8691    0.0000 C   0  0  0  0  0  0  0  0  0  0  0  0
   -1.7976   -4.9838    0.0000 C   0  0  0  0  0  0  0  0  0  0  0  0
   -0.3304   -4.6719    0.0000 C   0  0  0  0  0  0  0  0  0  0  0  0
    0.1331   -3.2453    0.0000 C   0  0  0  0  0  0  0  0  0  0  0  0
   -0.8706   -2.1306    0.0000 C   0  0  0  0  0  0  0  0  0  0  0  0
   -0.4071   -0.7040    0.0000 C   0  0  0  0  0  0  0  0  0  0  0  0
    1.0602   -0.3922    0.0000 C   0  0  0  0  0  0  0  0  0  0  0  0
    1.5237    1.0344    0.0000 C   0  0  0  0  0  0  0  0  0  0  0  0
    0.5200    2.1491    0.0000 C   0  0  0  0  0  0  0  0  0  0  0  0
   -0.9472    1.8373    0.0000 C   0  0  0  0  0  0  0  0  0  0  0  0
   -1.4108    0.4107    0.0000 C   0  0  0  0  0  0  0  0  0  0  0  0
   -2.8780    0.0988    0.0000 C   0  0  0  0  0  0  0  0  0  0  0  0
   -3.8817    1.2135    0.0000 C   0  0  0  0  0  0  0  0  0  0  0  0
   -2.0663    7.4918    0.0000 C   0  0  0  0  0  0  0  0  0  0  0  0
   -0.6960    8.1019    0.0000 C   0  0  0  0  0  0  0  0  0  0  0  0
  1  2  1  0
  2  3  2  0
  3  4  1  0
  4  5  2  0
  5  6  1  0
  6  7  2  0
  7  8  1  0
  8  9  2  0
  9 10  1  0
 10 11  1  0
 11 12  1  0
 12 13  2  0
 13 14  1  0
 14 15  2  0
 15 16  1  0
 16 17  1  0
 17 18  1  0
 18 19  1  0
 19 20  1  0
 20 21  1  0
 21 22  1  0
 22 23  1  0
 23 24  2  0
 24 25  1  0
 25 26  2  0
 26 27  1  0
 27 28  2  0
 28 29  1  0
 29 30  2  0
 30 31  1  0
 31 32  2  0
 32 33  1  0
 33 34  2  0
 34 35  1  0
 35 36  2  0
 36 37  1  0
 37 38  2  0
 26 39  1  0
 39 40  2  0
  5 41  1  0
 41 42  2  0
 42  2  1  0
 10  6  1  0
 16 11  1  0
 22 17  1  0
 40 23  1  0
 32 27  1  0
 38 33  1  0
M  END
>  <Title>  (263) 
idAAKCgen8

$$$$

     RDKit          2D

 56 64  0  0  0  0  0  0  0  0999 V2000
    8.9902    4.6131    0.0000 C   0  0  0  0  0  0  0  0  0  0  0  0
    7.7283    5.4241    0.0000 C   0  0  0  0  0  0  0  0  0  0  0  0
    7.7997    6.9224    0.0000 C   0  0  0  0  0  0  0  0  0  0  0  0
    6.5378    7.7333    0.0000 C   0  0  0  0  0  0  0  0  0  0  0  0
    5.2046    7.0460    0.0000 C   0  0  0  0  0  0  0  0  0  0  0  0
    3.9427    7.8570    0.0000 C   0  0  0  0  0  0  0  0  0  0  0  0
    4.0141    9.3553    0.0000 O   0  0  0  0  0  0  0  0  0  0  0  0
    2.6095    7.1696    0.0000 N   0  0  0  0  0  0  0  0  0  0  0  0
    1.3476    7.9806    0.0000 C   0  0  0  0  0  0  0  0  0  0  0  0
    1.2619    9.4781    0.0000 N   0  0  0  0  0  0  0  0  0  0  0  0
   -0.1888    9.8595    0.0000 N   0  0  0  0  0  0  0  0  0  0  0  0
   -0.9997    8.5976    0.0000 N   0  0  0  0  0  0  0  0  0  0  0  0
   -0.0502    7.4364    0.0000 N   0  0  0  0  0  0  0  0  0  0  0  0
   -0.4316    5.9857    0.0000 C   0  0  0  0  0  0  0  0  0  0  0  0
    0.8530    5.2111    0.0000 C   0  0  0  0  0  0  0  0  0  0  0  0
    1.5148    3.8650    0.0000 C   0  0  0  0  0  0  0  0  0  0  0  0
    1.3438    2.3747    0.0000 C   0  0  0  0  0  0  0  0  0  0  0  0
    2.7255    1.7908    0.0000 C   0  0  0  0  0  0  0  0  0  0  0  0
    3.0652    0.3298    0.0000 N   0  0  0  0  0  0  0  0  0  0  0  0
    4.5597    0.2015    0.0000 N   0  0  0  0  0  0  0  0  0  0  0  0
    5.1437    1.5831    0.0000 N   0  0  0  0  0  0  0  0  0  0  0  0
    4.0100    2.5654    0.0000 N   0  0  0  0  0  0  0  0  0  0  0  0
    4.1384    4.0599    0.0000 C   0  0  0  0  0  0  0  0  0  0  0  0
    2.9083    4.9183    0.0000 C   0  0  0  0  0  0  0  0  0  0  0  0
    3.0367    6.4128    0.0000 C   0  0  0  0  0  0  0  0  0  0  0  0
    4.3951    7.0489    0.0000 C   0  0  0  0  0  0  0  0  0  0  0  0
    4.5235    8.5434    0.0000 C   0  0  0  0  0  0  0  0  0  0  0  0
    5.6252    6.1905    0.0000 C   0  0  0  0  0  0  0  0  0  0  0  0
    6.9837    6.8266    0.0000 O   0  0  0  0  0  0  0  0  0  0  0  0
    5.4968    4.6960    0.0000 N   0  0  0  0  0  0  0  0  0  0  0  0
    0.3943    1.2135    0.0000 C   0  0  0  0  0  0  0  0  0  0  0  0
    1.2760    0.0000    0.0000 N   0  0  0  0  0  0  0  0  0  0  0  0
    0.3943   -1.2135    0.0000 N   0  0  0  0  0  0  0  0  0  0  0  0
   -1.0323   -0.7500    0.0000 N   0  0  0  0  0  0  0  0  0  0  0  0
   -1.0323    0.7500    0.0000 N   0  0  0  0  0  0  0  0  0  0  0  0
   -2.4830    1.1313    0.0000 C   0  0  0  0  0  0  0  0  0  0  0  0
   -3.2206   -0.1748    0.0000 N   0  0  0  0  0  0  0  0  0  0  0  0
   -4.6907    0.1231    0.0000 N   0  0  0  0  0  0  0  0  0  0  0  0
   -4.8617    1.6133    0.0000 N   0  0  0  0  0  0  0  0  0  0  0  0
   -3.4973    2.2364    0.0000 N   0  0  0  0  0  0  0  0  0  0  0  0
   -3.7531    3.7145    0.0000 C   0  0  0  0  0  0  0  0  0  0  0  0
   -5.0964    4.3818    0.0000 C   0  0  0  0  0  0  0  0  0  0  0  0
   -5.4123    5.8482    0.0000 C   0  0  0  0  0  0  0  0  0  0  0  0
   -4.4628    7.0094    0.0000 C   0  0  0  0  0  0  0  0  0  0  0  0
   -5.0970    8.3687    0.0000 C   0  0  0  0  0  0  0  0  0  0  0  0
   -6.5913    8.4991    0.0000 C   0  0  0  0  0  0  0  0  0  0  0  0
   -7.2256    9.8584    0.0000 C   0  0  0  0  0  0  0  0  0  0  0  0
   -6.3655   11.0873    0.0000 C   0  0  0  0  0  0  0  0  0  0  0  0
   -4.8712   10.9569    0.0000 C   0  0  0  0  0  0  0  0  0  0  0  0
   -4.2369    9.5976    0.0000 C   0  0  0  0  0  0  0  0  0  0  0  0
   -2.9629    6.9910    0.0000 C   0  0  0  0  0  0  0  0  0  0  0  0
   -1.9309    5.9428    0.0000 C   0  0  0  0  0  0  0  0  0  0  0  0
   -3.1691    5.0962    0.0000 C   0  0  0  0  0  0  0  0  0  0  0  0
   -4.3304    6.0457    0.0000 O   0  0  0  0  0  0  0  0  0  0  0  0
    5.1332    5.5477    0.0000 N   0  0  0  0  0  0  0  0  0  0  0  0
    6.3951    4.7367    0.0000 C   0  0  0  0  0  0  0  0  0  0  0  0
  1  2  1  0
  2  3  2  0
  3  4  1  0
  4  5  2  0
  5  6  1  0
  6  7  2  0
  6  8  1  0
  8  9  1  0
  9 10  2  0
 10 11  1  0
 11 12  2  0
 12 13  1  0
 13 14  1  0
 14 15  2  0
 15 16  1  0
 16 17  2  0
 17 18  1  0
 18 19  2  0
 19 20  1  0
 20 21  2  0
 21 22  1  0
 22 23  1  0
 23 24  2  0
 24 25  1  0
 25 26  2  0
 26 27  1  0
 26 28  1  0
 28 29  2  0
 28 30  1  0
 17 31  1  0
 31 32  2  0
 32 33  1  0
 33 34  2  0
 34 35  1  0
 35 36  1  0
 36 37  2  0
 37 38  1  0
 38 39  2  0
 39 40  1  0
 40 41  1  0
 41 42  2  0
 42 43  1  0
 43 44  2  0
 44 45  1  0
 45 46  2  0
 46 47  1  0
 47 48  2  0
 48 49  1  0
 49 50  2  0
 44 51  1  0
 51 52  2  0
 52 53  1  0
 53 54  2  0
  5 55  1  0
 55 56  1  0
 56  2  1  0
 13  9  1  0
 52 14  1  0
 22 18  1  0
 30 23  1  0
 35 31  1  0
 40 36  1  0
 53 41  1  0
 50 45  1  0
M  END
>  <Title>  (264) 
idAAKDgen8

$$$$

     RDKit          2D

 16 17  0  0  0  0  0  0  0  0999 V2000
    4.6805    5.4588    0.0000 C   0  0  0  0  0  0  0  0  0  0  0  0
    3.4905    4.5457    0.0000 C   0  0  0  0  0  0  0  0  0  0  0  0
    3.8787    3.0968    0.0000 C   0  0  0  0  0  0  0  0  0  0  0  0
    3.1287    1.7978    0.0000 C   0  0  0  0  0  0  0  0  0  0  0  0
    1.6798    1.4095    0.0000 C   0  0  0  0  0  0  0  0  0  0  0  0
    2.1929    0.0000    0.0000 C   0  0  0  0  0  0  0  0  0  0  0  0
    1.6798   -1.4095    0.0000 C   0  0  0  0  0  0  0  0  0  0  0  0
    0.3808   -2.1595    0.0000 C   0  0  0  0  0  0  0  0  0  0  0  0
   -1.0964   -1.8991    0.0000 C   0  0  0  0  0  0  0  0  0  0  0  0
   -2.0606   -0.7500    0.0000 C   0  0  0  0  0  0  0  0  0  0  0  0
   -2.0606    0.7500    0.0000 C   0  0  0  0  0  0  0  0  0  0  0  0
   -1.0964    1.8991    0.0000 C   0  0  0  0  0  0  0  0  0  0  0  0
    0.3808    2.1595    0.0000 C   0  0  0  0  0  0  0  0  0  0  0  0
   -0.0074    3.6084    0.0000 C   0  0  0  0  0  0  0  0  0  0  0  0
    0.7426    4.9075    0.0000 C   0  0  0  0  0  0  0  0  0  0  0  0
    2.1914    5.2957    0.0000 C   0  0  0  0  0  0  0  0  0  0  0  0
  1  2  1  0
  2  3  2  0
  3  4  1  0
  4  5  2  0
  5  6  1  0
  6  7  2  0
  7  8  1  0
  8  9  2  0
  9 10  1  0
 10 11  2  0
 11 12  1  0
 12 13  2  0
 13 14  1  0
 14 15  1  0
 15 16  2  0
 16  2  1  0
 13  5  1  0
M  END
>  <Title>  (265) 
idAAKEgen8

$$$$

     RDKit          2D

 27 29  0  0  0  0  0  0  0  0999 V2000
    4.7527   -1.2630    0.0000 C   0  0  0  0  0  0  0  0  0  0  0  0
    4.4922   -2.7402    0.0000 C   0  0  0  0  0  0  0  0  0  0  0  0
    5.7912   -3.4902    0.0000 C   0  0  0  0  0  0  0  0  0  0  0  0
    6.3043   -4.8998    0.0000 C   0  0  0  0  0  0  0  0  0  0  0  0
    5.7912   -6.3093    0.0000 C   0  0  0  0  0  0  0  0  0  0  0  0
    4.4922   -7.0593    0.0000 C   0  0  0  0  0  0  0  0  0  0  0  0
    3.0150   -6.7988    0.0000 C   0  0  0  0  0  0  0  0  0  0  0  0
    2.0508   -5.6498    0.0000 C   0  0  0  0  0  0  0  0  0  0  0  0
    2.0508   -4.1498    0.0000 C   0  0  0  0  0  0  0  0  0  0  0  0
    0.6413   -3.6368    0.0000 N   0  0  0  0  0  0  0  0  0  0  0  0
   -0.5078   -4.6009    0.0000 C   0  0  0  0  0  0  0  0  0  0  0  0
   -0.4032   -6.0973    0.0000 N   0  0  0  0  0  0  0  0  0  0  0  0
   -1.7940   -6.6592    0.0000 N   0  0  0  0  0  0  0  0  0  0  0  0
   -2.7581   -5.5101    0.0000 N   0  0  0  0  0  0  0  0  0  0  0  0
   -1.9633   -4.2380    0.0000 N   0  0  0  0  0  0  0  0  0  0  0  0
   -2.5252   -2.8473    0.0000 C   0  0  0  0  0  0  0  0  0  0  0  0
   -1.6017   -1.6653    0.0000 C   0  0  0  0  0  0  0  0  0  0  0  0
   -2.1636   -0.2745    0.0000 C   0  0  0  0  0  0  0  0  0  0  0  0
   -3.6490   -0.0657    0.0000 C   0  0  0  0  0  0  0  0  0  0  0  0
   -4.2109    1.3251    0.0000 C   0  0  0  0  0  0  0  0  0  0  0  0
   -3.2874    2.5071    0.0000 O   0  0  0  0  0  0  0  0  0  0  0  0
   -5.6963    1.5338    0.0000 N   0  0  0  0  0  0  0  0  0  0  0  0
   -6.2582    2.9246    0.0000 O   0  0  0  0  0  0  0  0  0  0  0  0
   -4.5725   -1.2477    0.0000 C   0  0  0  0  0  0  0  0  0  0  0  0
   -4.0106   -2.6385    0.0000 C   0  0  0  0  0  0  0  0  0  0  0  0
   -4.9341   -3.8205    0.0000 O   0  0  0  0  0  0  0  0  0  0  0  0
    3.0150   -3.0007    0.0000 N   0  0  0  0  0  0  0  0  0  0  0  0
  1  2  1  0
  2  3  2  0
  3  4  1  0
  4  5  2  0
  5  6  1  0
  6  7  2  0
  7  8  1  0
  8  9  2  0
  9 10  1  0
 10 11  1  0
 11 12  2  0
 12 13  1  0
 13 14  2  0
 14 15  1  0
 15 16  1  0
 16 17  2  0
 17 18  1  0
 18 19  2  0
 19 20  1  0
 20 21  2  0
 20 22  1  0
 22 23  1  0
 19 24  1  0
 24 25  1  0
 25 26  2  0
  9 27  1  0
 27  2  1  0
 15 11  1  0
 25 16  1  0
M  END
>  <Title>  (266) 
idAAKFgen8

$$$$

     RDKit          2D

 58 67  0  0  0  0  0  0  0  0999 V2000
    3.7500   -1.2990    0.0000 C   0  0  0  0  0  0  0  0  0  0  0  0
    3.0000    0.0000    0.0000 O   0  0  0  0  0  0  0  0  0  0  0  0
    1.5000    0.0000    0.0000 C   0  0  0  0  0  0  0  0  0  0  0  0
    0.7500   -1.2990    0.0000 C   0  0  0  0  0  0  0  0  0  0  0  0
   -0.7500   -1.2990    0.0000 C   0  0  0  0  0  0  0  0  0  0  0  0
   -1.5000    0.0000    0.0000 C   0  0  0  0  0  0  0  0  0  0  0  0
   -3.0000    0.0000    0.0000 C   0  0  0  0  0  0  0  0  0  0  0  0
   -3.8817   -1.2135    0.0000 N   0  0  0  0  0  0  0  0  0  0  0  0
   -5.3083   -0.7500    0.0000 N   0  0  0  0  0  0  0  0  0  0  0  0
   -5.3083    0.7500    0.0000 N   0  0  0  0  0  0  0  0  0  0  0  0
   -3.8817    1.2135    0.0000 N   0  0  0  0  0  0  0  0  0  0  0  0
   -3.4182    2.6401    0.0000 C   0  0  0  0  0  0  0  0  0  0  0  0
   -1.9509    2.9520    0.0000 C   0  0  0  0  0  0  0  0  0  0  0  0
   -1.4874    4.3786    0.0000 C   0  0  0  0  0  0  0  0  0  0  0  0
   -2.4911    5.4933    0.0000 C   0  0  0  0  0  0  0  0  0  0  0  0
   -2.0276    6.9199    0.0000 C   0  0  0  0  0  0  0  0  0  0  0  0
   -2.9093    8.1334    0.0000 N   0  0  0  0  0  0  0  0  0  0  0  0
   -2.0276    9.3469    0.0000 N   0  0  0  0  0  0  0  0  0  0  0  0
   -0.6010    8.8834    0.0000 N   0  0  0  0  0  0  0  0  0  0  0  0
   -0.6010    7.3834    0.0000 N   0  0  0  0  0  0  0  0  0  0  0  0
    0.6125    6.5017    0.0000 C   0  0  0  0  0  0  0  0  0  0  0  0
    0.4557    5.0099    0.0000 C   0  0  0  0  0  0  0  0  0  0  0  0
    1.6693    4.1283    0.0000 C   0  0  0  0  0  0  0  0  0  0  0  0
    3.0396    4.7384    0.0000 N   0  0  0  0  0  0  0  0  0  0  0  0
    3.1964    6.2301    0.0000 N   0  0  0  0  0  0  0  0  0  0  0  0
    1.9829    7.1118    0.0000 C   0  0  0  0  0  0  0  0  0  0  0  0
    2.1396    8.6036    0.0000 N   0  0  0  0  0  0  0  0  0  0  0  0
    1.0249    9.6073    0.0000 C   0  0  0  0  0  0  0  0  0  0  0  0
    1.6350   10.9776    0.0000 C   0  0  0  0  0  0  0  0  0  0  0  0
    3.1268   10.8208    0.0000 C   0  0  0  0  0  0  0  0  0  0  0  0
    3.4387    9.3536    0.0000 C   0  0  0  0  0  0  0  0  0  0  0  0
   -3.9583    5.1814    0.0000 C   0  0  0  0  0  0  0  0  0  0  0  0
   -4.4218    3.7548    0.0000 C   0  0  0  0  0  0  0  0  0  0  0  0
   -5.8891    3.4430    0.0000 C   0  0  0  0  0  0  0  0  0  0  0  0
   -6.8928    4.5577    0.0000 C   0  0  0  0  0  0  0  0  0  0  0  0
   -8.3600    4.2458    0.0000 C   0  0  0  0  0  0  0  0  0  0  0  0
   -8.8235    2.8192    0.0000 C   0  0  0  0  0  0  0  0  0  0  0  0
  -10.2907    2.5074    0.0000 C   0  0  0  0  0  0  0  0  0  0  0  0
  -10.9008    1.1370    0.0000 N   0  0  0  0  0  0  0  0  0  0  0  0
  -12.3926    1.2938    0.0000 N   0  0  0  0  0  0  0  0  0  0  0  0
  -12.7045    2.7611    0.0000 N   0  0  0  0  0  0  0  0  0  0  0  0
  -11.4055    3.5111    0.0000 N   0  0  0  0  0  0  0  0  0  0  0  0
  -11.2487    5.0028    0.0000 C   0  0  0  0  0  0  0  0  0  0  0  0
   -9.8783    5.6129    0.0000 C   0  0  0  0  0  0  0  0  0  0  0  0
   -9.7215    7.1047    0.0000 C   0  0  0  0  0  0  0  0  0  0  0  0
  -10.9351    7.9864    0.0000 C   0  0  0  0  0  0  0  0  0  0  0  0
  -12.3054    7.3763    0.0000 N   0  0  0  0  0  0  0  0  0  0  0  0
  -12.4622    5.8845    0.0000 C   0  0  0  0  0  0  0  0  0  0  0  0
  -13.8325    5.2744    0.0000 C   0  0  0  0  0  0  0  0  0  0  0  0
  -15.0460    6.1561    0.0000 C   0  0  0  0  0  0  0  0  0  0  0  0
  -16.4163    5.5460    0.0000 C   0  0  0  0  0  0  0  0  0  0  0  0
  -16.5731    4.0542    0.0000 C   0  0  0  0  0  0  0  0  0  0  0  0
  -15.3596    3.1725    0.0000 C   0  0  0  0  0  0  0  0  0  0  0  0
  -13.9893    3.7826    0.0000 C   0  0  0  0  0  0  0  0  0  0  0  0
   -7.8198    1.7045    0.0000 C   0  0  0  0  0  0  0  0  0  0  0  0
   -6.3526    2.0164    0.0000 C   0  0  0  0  0  0  0  0  0  0  0  0
   -0.7500    1.2990    0.0000 C   0  0  0  0  0  0  0  0  0  0  0  0
    0.7500    1.2990    0.0000 C   0  0  0  0  0  0  0  0  0  0  0  0
  1  2  1  0
  2  3  1  0
  3  4  2  0
  4  5  1  0
  5  6  2  0
  6  7  1  0
  7  8  2  0
  8  9  1  0
  9 10  2  0
 10 11  1  0
 11 12  1  0
 12 13  2  0
 13 14  1  0
 14 15  2  0
 15 16  1  0
 16 17  2  0
 17 18  1  0
 18 19  2  0
 19 20  1  0
 20 21  1  0
 21 22  2  0
 22 23  1  0
 23 24  2  0
 24 25  1  0
 25 26  2  0
 26 27  1  0
 27 28  1  0
 28 29  2  0
 29 30  1  0
 30 31  2  0
 15 32  1  0
 32 33  2  0
 33 34  1  0
 34 35  2  0
 35 36  1  0
 36 37  2  0
 37 38  1  0
 38 39  2  0
 39 40  1  0
 40 41  2  0
 41 42  1  0
 42 43  1  0
 43 44  2  0
 44 45  1  0
 45 46  2  0
 46 47  1  0
 47 48  2  0
 48 49  1  0
 49 50  2  0
 50 51  1  0
 51 52  2  0
 52 53  1  0
 53 54  2  0
 37 55  1  0
 55 56  2  0
  6 57  1  0
 57 58  2  0
 58  3  1  0
 11  7  1  0
 33 12  1  0
 56 34  1  0
 20 16  1  0
 26 21  1  0
 31 27  1  0
 42 38  1  0
 48 43  1  0
 54 49  1  0
M  END
>  <Title>  (267) 
idAAKGgen8

$$$$

     RDKit          2D

 20 20  0  0  0  0  0  0  0  0999 V2000
    6.0567    0.0000    0.0000 C   0  0  0  0  0  0  0  0  0  0  0  0
    4.5567    0.0000    0.0000 C   0  0  0  0  0  0  0  0  0  0  0  0
    4.3098    1.4795    0.0000 C   0  0  0  0  0  0  0  0  0  0  0  0
    3.5958    2.7988    0.0000 C   0  0  0  0  0  0  0  0  0  0  0  0
    2.4923    3.8147    0.0000 C   0  0  0  0  0  0  0  0  0  0  0  0
    1.1186    4.4172    0.0000 C   0  0  0  0  0  0  0  0  0  0  0  0
   -0.3763    4.5411    0.0000 C   0  0  0  0  0  0  0  0  0  0  0  0
   -1.8304    4.1729    0.0000 C   0  0  0  0  0  0  0  0  0  0  0  0
   -3.0861    3.3524    0.0000 C   0  0  0  0  0  0  0  0  0  0  0  0
   -4.0075    2.1687    0.0000 C   0  0  0  0  0  0  0  0  0  0  0  0
   -4.4945    0.7500    0.0000 C   0  0  0  0  0  0  0  0  0  0  0  0
   -4.4945   -0.7500    0.0000 C   0  0  0  0  0  0  0  0  0  0  0  0
   -4.0075   -2.1687    0.0000 C   0  0  0  0  0  0  0  0  0  0  0  0
   -3.0861   -3.3524    0.0000 C   0  0  0  0  0  0  0  0  0  0  0  0
   -1.8304   -4.1729    0.0000 C   0  0  0  0  0  0  0  0  0  0  0  0
   -0.3763   -4.5411    0.0000 C   0  0  0  0  0  0  0  0  0  0  0  0
    1.1186   -4.4172    0.0000 C   0  0  0  0  0  0  0  0  0  0  0  0
    2.4923   -3.8147    0.0000 C   0  0  0  0  0  0  0  0  0  0  0  0
    3.5958   -2.7988    0.0000 C   0  0  0  0  0  0  0  0  0  0  0  0
    4.3098   -1.4795    0.0000 C   0  0  0  0  0  0  0  0  0  0  0  0
  1  2  1  0
  2  3  2  0
  3  4  1  0
  4  5  2  0
  5  6  2  0
  6  7  1  0
  7  8  2  0
  8  9  1  0
  9 10  2  0
 10 11  1  0
 11 12  2  0
 12 13  1  0
 13 14  2  0
 14 15  1  0
 15 16  2  0
 16 17  1  0
 17 18  2  0
 18 19  1  0
 19 20  2  0
 20  2  1  0
M  END
>  <Title>  (268) 
idAAKHgen8

$$$$

     RDKit          2D

 40 46  0  0  0  0  0  0  0  0999 V2000
    3.0000    0.0000    0.0000 C   0  0  0  0  0  0  0  0  0  0  0  0
    1.5000    0.0000    0.0000 C   0  0  0  0  0  0  0  0  0  0  0  0
    0.7500   -1.2990    0.0000 C   0  0  0  0  0  0  0  0  0  0  0  0
   -0.7500   -1.2990    0.0000 C   0  0  0  0  0  0  0  0  0  0  0  0
   -1.5000    0.0000    0.0000 C   0  0  0  0  0  0  0  0  0  0  0  0
   -3.0000    0.0000    0.0000 C   0  0  0  0  0  0  0  0  0  0  0  0
   -3.8817   -1.2135    0.0000 N   0  0  0  0  0  0  0  0  0  0  0  0
   -5.3083   -0.7500    0.0000 N   0  0  0  0  0  0  0  0  0  0  0  0
   -5.3083    0.7500    0.0000 N   0  0  0  0  0  0  0  0  0  0  0  0
   -3.8817    1.2135    0.0000 N   0  0  0  0  0  0  0  0  0  0  0  0
   -3.4182    2.6401    0.0000 C   0  0  0  0  0  0  0  0  0  0  0  0
   -1.9509    2.9520    0.0000 C   0  0  0  0  0  0  0  0  0  0  0  0
   -1.4874    4.3786    0.0000 C   0  0  0  0  0  0  0  0  0  0  0  0
   -2.4911    5.4933    0.0000 C   0  0  0  0  0  0  0  0  0  0  0  0
   -3.9583    5.1814    0.0000 C   0  0  0  0  0  0  0  0  0  0  0  0
   -4.4218    3.7548    0.0000 C   0  0  0  0  0  0  0  0  0  0  0  0
   -5.8891    3.4430    0.0000 C   0  0  0  0  0  0  0  0  0  0  0  0
   -6.4992    2.0726    0.0000 C   0  0  0  0  0  0  0  0  0  0  0  0
   -7.9910    2.2294    0.0000 N   0  0  0  0  0  0  0  0  0  0  0  0
   -8.3028    3.6967    0.0000 N   0  0  0  0  0  0  0  0  0  0  0  0
   -7.0038    4.4467    0.0000 N   0  0  0  0  0  0  0  0  0  0  0  0
   -6.8470    5.9384    0.0000 C   0  0  0  0  0  0  0  0  0  0  0  0
   -5.4767    6.5485    0.0000 C   0  0  0  0  0  0  0  0  0  0  0  0
   -5.3199    8.0403    0.0000 C   0  0  0  0  0  0  0  0  0  0  0  0
   -6.5334    8.9220    0.0000 C   0  0  0  0  0  0  0  0  0  0  0  0
   -7.9037    8.3119    0.0000 C   0  0  0  0  0  0  0  0  0  0  0  0
   -8.0605    6.8201    0.0000 C   0  0  0  0  0  0  0  0  0  0  0  0
   -9.4308    6.2100    0.0000 C   0  0  0  0  0  0  0  0  0  0  0  0
   -9.5876    4.7182    0.0000 C   0  0  0  0  0  0  0  0  0  0  0  0
  -10.9579    4.1081    0.0000 C   0  0  0  0  0  0  0  0  0  0  0  0
  -12.1715    4.9898    0.0000 C   0  0  0  0  0  0  0  0  0  0  0  0
  -12.0147    6.4816    0.0000 C   0  0  0  0  0  0  0  0  0  0  0  0
  -10.6444    7.0917    0.0000 C   0  0  0  0  0  0  0  0  0  0  0  0
  -10.4876    8.5835    0.0000 N   0  0  0  0  0  0  0  0  0  0  0  0
   -9.1885    9.3335    0.0000 C   0  0  0  0  0  0  0  0  0  0  0  0
   -9.5004   10.8007    0.0000 C   0  0  0  0  0  0  0  0  0  0  0  0
  -10.9922   10.9575    0.0000 C   0  0  0  0  0  0  0  0  0  0  0  0
  -11.6023    9.5872    0.0000 C   0  0  0  0  0  0  0  0  0  0  0  0
   -0.7500    1.2990    0.0000 C   0  0  0  0  0  0  0  0  0  0  0  0
    0.7500    1.2990    0.0000 C   0  0  0  0  0  0  0  0  0  0  0  0
  1  2  1  0
  2  3  2  0
  3  4  1  0
  4  5  2  0
  5  6  1  0
  6  7  2  0
  7  8  1  0
  8  9  2  0
  9 10  1  0
 10 11  1  0
 11 12  1  0
 12 13  1  0
 13 14  1  0
 14 15  1  0
 15 16  1  0
 16 17  1  0
 17 18  2  0
 18 19  1  0
 19 20  2  0
 20 21  1  0
 21 22  1  0
 22 23  2  0
 23 24  1  0
 24 25  2  0
 25 26  1  0
 26 27  2  0
 27 28  1  0
 28 29  2  0
 29 30  1  0
 30 31  2  0
 31 32  1  0
 32 33  2  0
 33 34  1  0
 34 35  1  0
 35 36  2  0
 36 37  1  0
 37 38  2  0
  5 39  1  0
 39 40  2  0
 40  2  1  0
 10  6  1  0
 16 11  1  0
 21 17  1  0
 27 22  1  0
 33 28  1  0
 38 34  1  0
M  END
>  <Title>  (269) 
idAAKIgen8

$$$$

     RDKit          2D

 15 15  0  0  0  0  0  0  0  0999 V2000
    5.1478   -1.2990    0.0000 C   0  0  0  0  0  0  0  0  0  0  0  0
    4.3978    0.0000    0.0000 O   0  0  0  0  0  0  0  0  0  0  0  0
    2.8978    0.0000    0.0000 C   0  0  0  0  0  0  0  0  0  0  0  0
    2.5095   -1.4489    0.0000 C   0  0  0  0  0  0  0  0  0  0  0  0
    1.4489   -2.5095    0.0000 C   0  0  0  0  0  0  0  0  0  0  0  0
   -0.0000   -2.8978    0.0000 C   0  0  0  0  0  0  0  0  0  0  0  0
   -1.4489   -2.5095    0.0000 C   0  0  0  0  0  0  0  0  0  0  0  0
   -2.5095   -1.4489    0.0000 C   0  0  0  0  0  0  0  0  0  0  0  0
   -2.8978    0.0000    0.0000 C   0  0  0  0  0  0  0  0  0  0  0  0
   -2.5095    1.4489    0.0000 C   0  0  0  0  0  0  0  0  0  0  0  0
   -1.4489    2.5095    0.0000 C   0  0  0  0  0  0  0  0  0  0  0  0
    0.0000    2.8978    0.0000 C   0  0  0  0  0  0  0  0  0  0  0  0
    1.4489    2.5095    0.0000 C   0  0  0  0  0  0  0  0  0  0  0  0
    2.5095    1.4489    0.0000 C   0  0  0  0  0  0  0  0  0  0  0  0
    3.8086    2.1989    0.0000 O   0  0  0  0  0  0  0  0  0  0  0  0
  1  2  1  0
  2  3  1  0
  3  4  2  0
  4  5  1  0
  5  6  2  0
  6  7  1  0
  7  8  2  0
  8  9  1  0
  9 10  2  0
 10 11  1  0
 11 12  2  0
 12 13  1  0
 13 14  2  0
 14 15  1  0
 14  3  1  0
M  END
>  <Title>  (270) 
idAAKJgen8

$$$$

     RDKit          2D

 53 60  0  0  0  0  0  0  0  0999 V2000
    3.0000    0.0000    0.0000 C   0  0  0  0  0  0  0  0  0  0  0  0
    1.5000    0.0000    0.0000 C   0  0  0  0  0  0  0  0  0  0  0  0
    0.7500    1.2990    0.0000 C   0  0  0  0  0  0  0  0  0  0  0  0
   -0.7500    1.2990    0.0000 C   0  0  0  0  0  0  0  0  0  0  0  0
   -1.5000    0.0000    0.0000 C   0  0  0  0  0  0  0  0  0  0  0  0
   -3.0000    0.0000    0.0000 C   0  0  0  0  0  0  0  0  0  0  0  0
   -3.8817   -1.2135    0.0000 N   0  0  0  0  0  0  0  0  0  0  0  0
   -5.3083   -0.7500    0.0000 N   0  0  0  0  0  0  0  0  0  0  0  0
   -5.3083    0.7500    0.0000 N   0  0  0  0  0  0  0  0  0  0  0  0
   -3.8817    1.2135    0.0000 N   0  0  0  0  0  0  0  0  0  0  0  0
   -3.4182    2.6401    0.0000 C   0  0  0  0  0  0  0  0  0  0  0  0
   -1.9509    2.9520    0.0000 C   0  0  0  0  0  0  0  0  0  0  0  0
   -1.4874    4.3786    0.0000 C   0  0  0  0  0  0  0  0  0  0  0  0
   -2.4911    5.4933    0.0000 C   0  0  0  0  0  0  0  0  0  0  0  0
   -2.0276    6.9199    0.0000 C   0  0  0  0  0  0  0  0  0  0  0  0
   -3.0313    8.0346    0.0000 O   0  0  0  0  0  0  0  0  0  0  0  0
   -0.5604    7.2317    0.0000 N   0  0  0  0  0  0  0  0  0  0  0  0
   -0.0968    8.6583    0.0000 C   0  0  0  0  0  0  0  0  0  0  0  0
   -0.9785    9.8718    0.0000 N   0  0  0  0  0  0  0  0  0  0  0  0
   -0.0968   11.0854    0.0000 N   0  0  0  0  0  0  0  0  0  0  0  0
    1.3298   10.6218    0.0000 N   0  0  0  0  0  0  0  0  0  0  0  0
    1.3298    9.1218    0.0000 N   0  0  0  0  0  0  0  0  0  0  0  0
    2.5433    8.2402    0.0000 C   0  0  0  0  0  0  0  0  0  0  0  0
    3.9699    8.7037    0.0000 N   0  0  0  0  0  0  0  0  0  0  0  0
    4.8515    7.4902    0.0000 N   0  0  0  0  0  0  0  0  0  0  0  0
    3.9699    6.2766    0.0000 N   0  0  0  0  0  0  0  0  0  0  0  0
    2.5433    6.7402    0.0000 N   0  0  0  0  0  0  0  0  0  0  0  0
    1.3298    5.8585    0.0000 C   0  0  0  0  0  0  0  0  0  0  0  0
   -0.0968    6.3220    0.0000 C   0  0  0  0  0  0  0  0  0  0  0  0
   -0.9785    5.1085    0.0000 N   0  0  0  0  0  0  0  0  0  0  0  0
   -0.0968    3.8950    0.0000 N   0  0  0  0  0  0  0  0  0  0  0  0
    1.3298    4.3585    0.0000 N   0  0  0  0  0  0  0  0  0  0  0  0
    2.5433    3.4768    0.0000 C   0  0  0  0  0  0  0  0  0  0  0  0
    3.9136    4.0869    0.0000 C   0  0  0  0  0  0  0  0  0  0  0  0
    5.1271    3.2052    0.0000 C   0  0  0  0  0  0  0  0  0  0  0  0
    4.9703    1.7135    0.0000 C   0  0  0  0  0  0  0  0  0  0  0  0
    3.6000    1.1033    0.0000 C   0  0  0  0  0  0  0  0  0  0  0  0
    2.3865    1.9850    0.0000 C   0  0  0  0  0  0  0  0  0  0  0  0
   -3.9583    5.1814    0.0000 C   0  0  0  0  0  0  0  0  0  0  0  0
   -4.4218    3.7548    0.0000 C   0  0  0  0  0  0  0  0  0  0  0  0
   -5.8891    3.4430    0.0000 C   0  0  0  0  0  0  0  0  0  0  0  0
   -6.8928    4.5577    0.0000 C   0  0  0  0  0  0  0  0  0  0  0  0
   -8.3600    4.2458    0.0000 C   0  0  0  0  0  0  0  0  0  0  0  0
   -8.8235    2.8192    0.0000 C   0  0  0  0  0  0  0  0  0  0  0  0
  -10.2907    2.5074    0.0000 C   0  0  0  0  0  0  0  0  0  0  0  0
  -10.7543    1.0808    0.0000 O   0  0  0  0  0  0  0  0  0  0  0  0
  -11.2944    3.6221    0.0000 N   0  0  0  0  0  0  0  0  0  0  0  0
  -12.7617    3.3102    0.0000 O   0  0  0  0  0  0  0  0  0  0  0  0
   -7.8198    1.7045    0.0000 C   0  0  0  0  0  0  0  0  0  0  0  0
   -6.3526    2.0164    0.0000 C   0  0  0  0  0  0  0  0  0  0  0  0
   -0.7500   -1.2990    0.0000 C   0  0  0  0  0  0  0  0  0  0  0  0
   -1.5000   -2.5981    0.0000 O   0  0  0  0  0  0  0  0  0  0  0  0
    0.7500   -1.2990    0.0000 N   0  0  0  0  0  0  0  0  0  0  0  0
  1  2  1  0
  2  3  2  0
  3  4  1  0
  4  5  2  0
  5  6  1  0
  6  7  2  0
  7  8  1  0
  8  9  2  0
  9 10  1  0
 10 11  1  0
 11 12  2  0
 12 13  1  0
 13 14  2  0
 14 15  1  0
 15 16  2  0
 15 17  1  0
 17 18  1  0
 18 19  2  0
 19 20  1  0
 20 21  2  0
 21 22  1  0
 22 23  1  0
 23 24  2  0
 24 25  1  0
 25 26  2  0
 26 27  1  0
 27 28  1  0
 28 29  2  0
 29 30  1  0
 30 31  2  0
 31 32  1  0
 32 33  1  0
 33 34  2  0
 34 35  1  0
 35 36  2  0
 36 37  1  0
 37 38  2  0
 14 39  1  0
 39 40  2  0
 40 41  1  0
 41 42  2  0
 42 43  1  0
 43 44  2  0
 44 45  1  0
 45 46  2  0
 45 47  1  0
 47 48  1  0
 44 49  1  0
 49 50  1  0
  5 51  1  0
 51 52  2  0
 51 53  1  0
 53  2  1  0
 10  6  1  0
 40 11  1  0
 50 41  1  0
 22 18  1  0
 27 23  1  0
 32 28  1  0
 38 33  1  0
M  END
>  <Title>  (271) 
idAAKKgen8

$$$$

     RDKit          2D

 33 37  0  0  0  0  0  0  0  0999 V2000
    3.7500   -1.2990    0.0000 C   0  0  0  0  0  0  0  0  0  0  0  0
    3.0000    0.0000    0.0000 O   0  0  0  0  0  0  0  0  0  0  0  0
    1.5000    0.0000    0.0000 C   0  0  0  0  0  0  0  0  0  0  0  0
    0.7500   -1.2990    0.0000 C   0  0  0  0  0  0  0  0  0  0  0  0
   -0.7500   -1.2990    0.0000 C   0  0  0  0  0  0  0  0  0  0  0  0
   -1.5000    0.0000    0.0000 C   0  0  0  0  0  0  0  0  0  0  0  0
   -3.0000    0.0000    0.0000 C   0  0  0  0  0  0  0  0  0  0  0  0
   -3.8817   -1.2135    0.0000 N   0  0  0  0  0  0  0  0  0  0  0  0
   -5.3083   -0.7500    0.0000 N   0  0  0  0  0  0  0  0  0  0  0  0
   -5.3083    0.7500    0.0000 N   0  0  0  0  0  0  0  0  0  0  0  0
   -3.8817    1.2135    0.0000 N   0  0  0  0  0  0  0  0  0  0  0  0
   -3.4182    2.6401    0.0000 C   0  0  0  0  0  0  0  0  0  0  0  0
   -4.2998    3.8536    0.0000 C   0  0  0  0  0  0  0  0  0  0  0  0
   -3.4182    5.0672    0.0000 C   0  0  0  0  0  0  0  0  0  0  0  0
   -1.9916    4.6036    0.0000 C   0  0  0  0  0  0  0  0  0  0  0  0
   -0.7780    5.4853    0.0000 C   0  0  0  0  0  0  0  0  0  0  0  0
   -0.9348    6.9771    0.0000 O   0  0  0  0  0  0  0  0  0  0  0  0
    0.5923    4.8752    0.0000 N   0  0  0  0  0  0  0  0  0  0  0  0
    1.8058    5.7569    0.0000 C   0  0  0  0  0  0  0  0  0  0  0  0
    1.8058    7.2569    0.0000 N   0  0  0  0  0  0  0  0  0  0  0  0
    3.2324    7.7204    0.0000 N   0  0  0  0  0  0  0  0  0  0  0  0
    4.1141    6.5069    0.0000 N   0  0  0  0  0  0  0  0  0  0  0  0
    3.2324    5.2934    0.0000 N   0  0  0  0  0  0  0  0  0  0  0  0
    3.6959    3.8668    0.0000 C   0  0  0  0  0  0  0  0  0  0  0  0
    2.6922    2.7521    0.0000 C   0  0  0  0  0  0  0  0  0  0  0  0
    3.1557    1.3255    0.0000 C   0  0  0  0  0  0  0  0  0  0  0  0
    4.6230    1.0136    0.0000 C   0  0  0  0  0  0  0  0  0  0  0  0
    5.6267    2.1283    0.0000 C   0  0  0  0  0  0  0  0  0  0  0  0
    5.1631    3.5549    0.0000 C   0  0  0  0  0  0  0  0  0  0  0  0
   -1.9916    3.1036    0.0000 C   0  0  0  0  0  0  0  0  0  0  0  0
   -0.7780    2.2220    0.0000 O   0  0  0  0  0  0  0  0  0  0  0  0
   -0.7500    1.2990    0.0000 C   0  0  0  0  0  0  0  0  0  0  0  0
    0.7500    1.2990    0.0000 C   0  0  0  0  0  0  0  0  0  0  0  0
  1  2  1  0
  2  3  1  0
  3  4  2  0
  4  5  1  0
  5  6  2  0
  6  7  1  0
  7  8  2  0
  8  9  1  0
  9 10  2  0
 10 11  1  0
 11 12  1  0
 12 13  2  0
 13 14  1  0
 14 15  2  0
 15 16  1  0
 16 17  2  0
 16 18  1  0
 18 19  1  0
 19 20  2  0
 20 21  1  0
 21 22  2  0
 22 23  1  0
 23 24  1  0
 24 25  2  0
 25 26  1  0
 26 27  2  0
 27 28  1  0
 28 29  2  0
 15 30  1  0
 30 31  2  0
  6 32  1  0
 32 33  2  0
 33  3  1  0
 11  7  1  0
 30 12  1  0
 23 19  1  0
 29 24  1  0
M  END
>  <Title>  (272) 
idAAKLgen8

$$$$

     RDKit          2D

 41 46  0  0  0  0  0  0  0  0999 V2000
    3.2286   -0.0000    0.0000 C   0  0  0  0  0  0  0  0  0  0  0  0
    1.7286    0.0000    0.0000 C   0  0  0  0  0  0  0  0  0  0  0  0
    1.0777    1.3515    0.0000 C   0  0  0  0  0  0  0  0  0  0  0  0
   -0.3846    1.6852    0.0000 C   0  0  0  0  0  0  0  0  0  0  0  0
   -1.5574    0.7500    0.0000 C   0  0  0  0  0  0  0  0  0  0  0  0
   -2.9088    1.4008    0.0000 C   0  0  0  0  0  0  0  0  0  0  0  0
   -4.2297    0.6900    0.0000 N   0  0  0  0  0  0  0  0  0  0  0  0
   -5.3139    1.7266    0.0000 N   0  0  0  0  0  0  0  0  0  0  0  0
   -4.6631    3.0781    0.0000 N   0  0  0  0  0  0  0  0  0  0  0  0
   -3.1767    2.8767    0.0000 N   0  0  0  0  0  0  0  0  0  0  0  0
   -2.1401    3.9609    0.0000 C   0  0  0  0  0  0  0  0  0  0  0  0
   -0.6829    3.6053    0.0000 C   0  0  0  0  0  0  0  0  0  0  0  0
    0.3537    4.6895    0.0000 C   0  0  0  0  0  0  0  0  0  0  0  0
   -0.0669    6.1293    0.0000 C   0  0  0  0  0  0  0  0  0  0  0  0
   -1.5241    6.4849    0.0000 C   0  0  0  0  0  0  0  0  0  0  0  0
   -2.5607    5.4007    0.0000 C   0  0  0  0  0  0  0  0  0  0  0  0
   -4.0180    5.7563    0.0000 C   0  0  0  0  0  0  0  0  0  0  0  0
   -5.1622    4.7864    0.0000 C   0  0  0  0  0  0  0  0  0  0  0  0
   -6.4382    5.5750    0.0000 C   0  0  0  0  0  0  0  0  0  0  0  0
   -6.0826    7.0322    0.0000 C   0  0  0  0  0  0  0  0  0  0  0  0
   -7.0525    8.1765    0.0000 C   0  0  0  0  0  0  0  0  0  0  0  0
   -8.5284    7.9086    0.0000 O   0  0  0  0  0  0  0  0  0  0  0  0
   -6.5465    9.5885    0.0000 N   0  0  0  0  0  0  0  0  0  0  0  0
   -7.5164   10.7328    0.0000 N   0  0  0  0  0  0  0  0  0  0  0  0
   -8.9923   10.4649    0.0000 N   0  0  0  0  0  0  0  0  0  0  0  0
   -9.9622   11.6092    0.0000 N   0  0  0  0  0  0  0  0  0  0  0  0
   -9.4562   13.0213    0.0000 N   0  0  0  0  0  0  0  0  0  0  0  0
   -7.9803   13.2891    0.0000 N   0  0  0  0  0  0  0  0  0  0  0  0
   -7.0104   12.1449    0.0000 N   0  0  0  0  0  0  0  0  0  0  0  0
   -5.5345   12.4127    0.0000 C   0  0  0  0  0  0  0  0  0  0  0  0
   -5.0285   13.8248    0.0000 C   0  0  0  0  0  0  0  0  0  0  0  0
   -3.5526   14.0926    0.0000 C   0  0  0  0  0  0  0  0  0  0  0  0
   -2.5827   12.9484    0.0000 C   0  0  0  0  0  0  0  0  0  0  0  0
   -3.0887   11.5363    0.0000 C   0  0  0  0  0  0  0  0  0  0  0  0
   -4.5646   11.2684    0.0000 C   0  0  0  0  0  0  0  0  0  0  0  0
   -4.5868    7.1443    0.0000 C   0  0  0  0  0  0  0  0  0  0  0  0
   -3.7983    8.4203    0.0000 O   0  0  0  0  0  0  0  0  0  0  0  0
   -1.5574   -0.7500    0.0000 N   0  0  0  0  0  0  0  0  0  0  0  0
   -0.3846   -1.6852    0.0000 C   0  0  0  0  0  0  0  0  0  0  0  0
   -0.7184   -3.1476    0.0000 O   0  0  0  0  0  0  0  0  0  0  0  0
    1.0777   -1.3515    0.0000 C   0  0  0  0  0  0  0  0  0  0  0  0
  1  2  1  0
  2  3  2  0
  3  4  1  0
  4  5  2  0
  5  6  1  0
  6  7  2  0
  7  8  1  0
  8  9  2  0
  9 10  1  0
 10 11  1  0
 11 12  1  0
 12 13  1  0
 13 14  1  0
 14 15  1  0
 15 16  1  0
 16 17  1  0
 17 18  2  0
 18 19  1  0
 19 20  2  0
 20 21  1  0
 21 22  2  0
 21 23  1  0
 23 24  1  0
 24 25  1  0
 25 26  2  0
 26 27  1  0
 27 28  2  0
 28 29  1  0
 29 30  1  0
 30 31  2  0
 31 32  1  0
 32 33  2  0
 33 34  1  0
 34 35  2  0
 20 36  1  0
 36 37  2  0
  5 38  1  0
 38 39  1  0
 39 40  2  0
 39 41  1  0
 41  2  1  0
 10  6  1  0
 16 11  1  0
 36 17  1  0
 29 24  1  0
 35 30  1  0
M  END
>  <Title>  (273) 
idAAKMgen8

$$$$

     RDKit          2D

 38 43  0  0  0  0  0  0  0  0999 V2000
   -5.6321   10.5120    0.0000 C   0  0  0  0  0  0  0  0  0  0  0  0
   -4.4186    9.6303    0.0000 C   0  0  0  0  0  0  0  0  0  0  0  0
   -4.5754    8.1386    0.0000 C   0  0  0  0  0  0  0  0  0  0  0  0
   -3.3619    7.2569    0.0000 C   0  0  0  0  0  0  0  0  0  0  0  0
   -1.9916    7.8670    0.0000 C   0  0  0  0  0  0  0  0  0  0  0  0
   -0.7780    6.9853    0.0000 C   0  0  0  0  0  0  0  0  0  0  0  0
    0.6485    7.4488    0.0000 N   0  0  0  0  0  0  0  0  0  0  0  0
    1.5302    6.2353    0.0000 N   0  0  0  0  0  0  0  0  0  0  0  0
    0.6485    5.0218    0.0000 N   0  0  0  0  0  0  0  0  0  0  0  0
   -0.7780    5.4853    0.0000 N   0  0  0  0  0  0  0  0  0  0  0  0
   -1.9916    4.6036    0.0000 C   0  0  0  0  0  0  0  0  0  0  0  0
   -3.4182    5.0672    0.0000 N   0  0  0  0  0  0  0  0  0  0  0  0
   -4.2998    3.8536    0.0000 N   0  0  0  0  0  0  0  0  0  0  0  0
   -3.4182    2.6401    0.0000 N   0  0  0  0  0  0  0  0  0  0  0  0
   -1.9916    3.1036    0.0000 N   0  0  0  0  0  0  0  0  0  0  0  0
   -0.7780    2.2220    0.0000 C   0  0  0  0  0  0  0  0  0  0  0  0
    0.6485    2.6855    0.0000 C   0  0  0  0  0  0  0  0  0  0  0  0
    1.5302    1.4720    0.0000 C   0  0  0  0  0  0  0  0  0  0  0  0
    0.6485    0.2584    0.0000 C   0  0  0  0  0  0  0  0  0  0  0  0
    1.1121   -1.1682    0.0000 C   0  0  0  0  0  0  0  0  0  0  0  0
    0.1084   -2.2829    0.0000 O   0  0  0  0  0  0  0  0  0  0  0  0
    2.5793   -1.4800    0.0000 N   0  0  0  0  0  0  0  0  0  0  0  0
    3.0428   -2.9066    0.0000 C   0  0  0  0  0  0  0  0  0  0  0  0
    2.1611   -4.1201    0.0000 N   0  0  0  0  0  0  0  0  0  0  0  0
    3.0428   -5.3337    0.0000 N   0  0  0  0  0  0  0  0  0  0  0  0
    4.4694   -4.8701    0.0000 N   0  0  0  0  0  0  0  0  0  0  0  0
    4.4694   -3.3701    0.0000 N   0  0  0  0  0  0  0  0  0  0  0  0
    5.6829   -2.4885    0.0000 C   0  0  0  0  0  0  0  0  0  0  0  0
    5.5261   -0.9967    0.0000 C   0  0  0  0  0  0  0  0  0  0  0  0
    6.7397   -0.1150    0.0000 C   0  0  0  0  0  0  0  0  0  0  0  0
    8.1100   -0.7251    0.0000 C   0  0  0  0  0  0  0  0  0  0  0  0
    8.2668   -2.2169    0.0000 C   0  0  0  0  0  0  0  0  0  0  0  0
    7.0532   -3.0986    0.0000 C   0  0  0  0  0  0  0  0  0  0  0  0
   -0.7780    0.7220    0.0000 C   0  0  0  0  0  0  0  0  0  0  0  0
   -1.9916   -0.1597    0.0000 O   0  0  0  0  0  0  0  0  0  0  0  0
   -1.8348    9.3588    0.0000 C   0  0  0  0  0  0  0  0  0  0  0  0
   -0.4645    9.9689    0.0000 O   0  0  0  0  0  0  0  0  0  0  0  0
   -3.0483   10.2405    0.0000 N   0  0  0  0  0  0  0  0  0  0  0  0
  1  2  1  0
  2  3  2  0
  3  4  1  0
  4  5  2  0
  5  6  1  0
  6  7  2  0
  7  8  1  0
  8  9  2  0
  9 10  1  0
 10 11  1  0
 11 12  2  0
 12 13  1  0
 13 14  2  0
 14 15  1  0
 15 16  1  0
 16 17  2  0
 17 18  1  0
 18 19  2  0
 19 20  1  0
 20 21  2  0
 20 22  1  0
 22 23  1  0
 23 24  2  0
 24 25  1  0
 25 26  2  0
 26 27  1  0
 27 28  1  0
 28 29  2  0
 29 30  1  0
 30 31  2  0
 31 32  1  0
 32 33  2  0
 19 34  1  0
 34 35  2  0
  5 36  1  0
 36 37  2  0
 36 38  1  0
 38  2  1  0
 10  6  1  0
 15 11  1  0
 34 16  1  0
 27 23  1  0
 33 28  1  0
M  END
>  <Title>  (274) 
idAAKNgen8

$$$$

     RDKit          2D

 14 15  0  0  0  0  0  0  0  0999 V2000
    2.8449    6.6264    0.0000 C   0  0  0  0  0  0  0  0  0  0  0  0
    1.4115    6.1843    0.0000 O   0  0  0  0  0  0  0  0  0  0  0  0
    1.0777    4.7219    0.0000 C   0  0  0  0  0  0  0  0  0  0  0  0
    2.2505    3.7867    0.0000 C   0  0  0  0  0  0  0  0  0  0  0  0
    2.2505    2.2867    0.0000 C   0  0  0  0  0  0  0  0  0  0  0  0
    1.0777    1.3515    0.0000 C   0  0  0  0  0  0  0  0  0  0  0  0
    1.7286    0.0000    0.0000 C   0  0  0  0  0  0  0  0  0  0  0  0
    1.0777   -1.3515    0.0000 C   0  0  0  0  0  0  0  0  0  0  0  0
   -0.3846   -1.6852    0.0000 C   0  0  0  0  0  0  0  0  0  0  0  0
   -1.5574   -0.7500    0.0000 C   0  0  0  0  0  0  0  0  0  0  0  0
   -1.5574    0.7500    0.0000 C   0  0  0  0  0  0  0  0  0  0  0  0
   -0.3846    1.6852    0.0000 C   0  0  0  0  0  0  0  0  0  0  0  0
   -1.0355    3.0367    0.0000 C   0  0  0  0  0  0  0  0  0  0  0  0
   -0.3846    4.3881    0.0000 C   0  0  0  0  0  0  0  0  0  0  0  0
  1  2  1  0
  2  3  1  0
  3  4  2  0
  4  5  1  0
  5  6  2  0
  6  7  1  0
  7  8  2  0
  8  9  1  0
  9 10  2  0
 10 11  1  0
 11 12  2  0
 12 13  1  0
 13 14  2  0
 14  3  1  0
 12  6  1  0
M  END
>  <Title>  (275) 
idAAKOgen8

$$$$

     RDKit          2D

 33 33  0  0  0  0  0  0  0  0999 V2000
    9.1517    0.0000    0.0000 C   0  0  0  0  0  0  0  0  0  0  0  0
    7.6517    0.0000    0.0000 C   0  0  0  0  0  0  0  0  0  0  0  0
    7.5047   -1.4928    0.0000 C   0  0  0  0  0  0  0  0  0  0  0  0
    7.0693   -2.9282    0.0000 C   0  0  0  0  0  0  0  0  0  0  0  0
    6.3622   -4.2511    0.0000 C   0  0  0  0  0  0  0  0  0  0  0  0
    5.4106   -5.4106    0.0000 C   0  0  0  0  0  0  0  0  0  0  0  0
    4.2511   -6.3622    0.0000 C   0  0  0  0  0  0  0  0  0  0  0  0
    2.9282   -7.0693    0.0000 C   0  0  0  0  0  0  0  0  0  0  0  0
    1.4928   -7.5047    0.0000 C   0  0  0  0  0  0  0  0  0  0  0  0
   -0.0000   -7.6517    0.0000 C   0  0  0  0  0  0  0  0  0  0  0  0
   -1.4928   -7.5047    0.0000 C   0  0  0  0  0  0  0  0  0  0  0  0
   -2.9282   -7.0693    0.0000 C   0  0  0  0  0  0  0  0  0  0  0  0
   -4.2511   -6.3622    0.0000 C   0  0  0  0  0  0  0  0  0  0  0  0
   -5.4106   -5.4106    0.0000 C   0  0  0  0  0  0  0  0  0  0  0  0
   -6.3622   -4.2511    0.0000 C   0  0  0  0  0  0  0  0  0  0  0  0
   -7.0693   -2.9282    0.0000 C   0  0  0  0  0  0  0  0  0  0  0  0
   -7.5047   -1.4928    0.0000 C   0  0  0  0  0  0  0  0  0  0  0  0
   -7.6517    0.0000    0.0000 C   0  0  0  0  0  0  0  0  0  0  0  0
   -7.5047    1.4928    0.0000 C   0  0  0  0  0  0  0  0  0  0  0  0
   -7.0693    2.9282    0.0000 C   0  0  0  0  0  0  0  0  0  0  0  0
   -6.3622    4.2511    0.0000 C   0  0  0  0  0  0  0  0  0  0  0  0
   -5.4106    5.4106    0.0000 C   0  0  0  0  0  0  0  0  0  0  0  0
   -4.2511    6.3622    0.0000 C   0  0  0  0  0  0  0  0  0  0  0  0
   -2.9282    7.0693    0.0000 C   0  0  0  0  0  0  0  0  0  0  0  0
   -1.4928    7.5047    0.0000 C   0  0  0  0  0  0  0  0  0  0  0  0
    0.0000    7.6517    0.0000 C   0  0  0  0  0  0  0  0  0  0  0  0
    1.4928    7.5047    0.0000 C   0  0  0  0  0  0  0  0  0  0  0  0
    2.9282    7.0693    0.0000 C   0  0  0  0  0  0  0  0  0  0  0  0
    4.2511    6.3622    0.0000 C   0  0  0  0  0  0  0  0  0  0  0  0
    5.4106    5.4106    0.0000 C   0  0  0  0  0  0  0  0  0  0  0  0
    6.3622    4.2511    0.0000 C   0  0  0  0  0  0  0  0  0  0  0  0
    7.0693    2.9282    0.0000 C   0  0  0  0  0  0  0  0  0  0  0  0
    7.5047    1.4928    0.0000 C   0  0  0  0  0  0  0  0  0  0  0  0
  1  2  1  0
  2  3  2  0
  3  4  1  0
  4  5  2  0
  5  6  1  0
  6  7  2  0
  7  8  1  0
  8  9  2  0
  9 10  1  0
 10 11  2  0
 11 12  1  0
 12 13  2  0
 13 14  1  0
 14 15  2  0
 15 16  1  0
 16 17  2  0
 17 18  1  0
 18 19  2  0
 19 20  1  0
 20 21  2  0
 21 22  1  0
 22 23  2  0
 23 24  1  0
 24 25  2  0
 25 26  1  0
 26 27  2  0
 27 28  1  0
 28 29  2  0
 29 30  1  0
 30 31  2  0
 31 32  1  0
 32 33  2  0
 33  2  1  0
M  END
>  <Title>  (276) 
idAAKPgen8

$$$$

     RDKit          2D

 61 69  0  0  0  0  0  0  0  0999 V2000
    3.0000    0.0000    0.0000 C   0  0  0  0  0  0  0  0  0  0  0  0
    1.5000    0.0000    0.0000 C   0  0  0  0  0  0  0  0  0  0  0  0
    0.7500   -1.2990    0.0000 C   0  0  0  0  0  0  0  0  0  0  0  0
   -0.7500   -1.2990    0.0000 C   0  0  0  0  0  0  0  0  0  0  0  0
   -1.5000    0.0000    0.0000 C   0  0  0  0  0  0  0  0  0  0  0  0
   -3.0000    0.0000    0.0000 C   0  0  0  0  0  0  0  0  0  0  0  0
   -3.7500   -1.2990    0.0000 O   0  0  0  0  0  0  0  0  0  0  0  0
   -3.7500    1.2990    0.0000 N   0  0  0  0  0  0  0  0  0  0  0  0
   -5.2500    1.2990    0.0000 C   0  0  0  0  0  0  0  0  0  0  0  0
   -6.1317    0.0855    0.0000 N   0  0  0  0  0  0  0  0  0  0  0  0
   -7.5583    0.5490    0.0000 N   0  0  0  0  0  0  0  0  0  0  0  0
   -7.5583    2.0490    0.0000 N   0  0  0  0  0  0  0  0  0  0  0  0
   -6.1317    2.5126    0.0000 N   0  0  0  0  0  0  0  0  0  0  0  0
   -5.6682    3.9391    0.0000 C   0  0  0  0  0  0  0  0  0  0  0  0
   -4.2009    4.2510    0.0000 C   0  0  0  0  0  0  0  0  0  0  0  0
   -3.7374    5.6776    0.0000 C   0  0  0  0  0  0  0  0  0  0  0  0
   -4.7411    6.7923    0.0000 C   0  0  0  0  0  0  0  0  0  0  0  0
   -4.2776    8.2189    0.0000 C   0  0  0  0  0  0  0  0  0  0  0  0
   -6.2083    6.4805    0.0000 C   0  0  0  0  0  0  0  0  0  0  0  0
   -6.6718    5.0539    0.0000 C   0  0  0  0  0  0  0  0  0  0  0  0
   -8.1391    4.7420    0.0000 C   0  0  0  0  0  0  0  0  0  0  0  0
   -8.7492    3.3717    0.0000 N   0  0  0  0  0  0  0  0  0  0  0  0
  -10.2410    3.5285    0.0000 N   0  0  0  0  0  0  0  0  0  0  0  0
  -10.5528    4.9957    0.0000 N   0  0  0  0  0  0  0  0  0  0  0  0
   -9.2538    5.7457    0.0000 N   0  0  0  0  0  0  0  0  0  0  0  0
   -9.0970    7.2375    0.0000 C   0  0  0  0  0  0  0  0  0  0  0  0
   -7.7267    7.8476    0.0000 C   0  0  0  0  0  0  0  0  0  0  0  0
   -7.5699    9.3394    0.0000 C   0  0  0  0  0  0  0  0  0  0  0  0
   -8.7834   10.2210    0.0000 C   0  0  0  0  0  0  0  0  0  0  0  0
   -8.6266   11.7128    0.0000 C   0  0  0  0  0  0  0  0  0  0  0  0
   -9.8401   12.5945    0.0000 O   0  0  0  0  0  0  0  0  0  0  0  0
   -7.2563   12.3229    0.0000 N   0  0  0  0  0  0  0  0  0  0  0  0
   -7.0995   13.8147    0.0000 C   0  0  0  0  0  0  0  0  0  0  0  0
   -8.2142   14.8184    0.0000 N   0  0  0  0  0  0  0  0  0  0  0  0
   -7.6041   16.1887    0.0000 N   0  0  0  0  0  0  0  0  0  0  0  0
   -6.1123   16.0319    0.0000 N   0  0  0  0  0  0  0  0  0  0  0  0
   -5.8005   14.5647    0.0000 N   0  0  0  0  0  0  0  0  0  0  0  0
   -4.4301   13.9546    0.0000 C   0  0  0  0  0  0  0  0  0  0  0  0
   -4.2734   12.4628    0.0000 C   0  0  0  0  0  0  0  0  0  0  0  0
   -2.9030   11.8527    0.0000 C   0  0  0  0  0  0  0  0  0  0  0  0
   -1.6895   12.7344    0.0000 C   0  0  0  0  0  0  0  0  0  0  0  0
   -0.3192   12.1243    0.0000 C   0  0  0  0  0  0  0  0  0  0  0  0
   -0.1624   10.6325    0.0000 C   0  0  0  0  0  0  0  0  0  0  0  0
    1.2079   10.0224    0.0000 C   0  0  0  0  0  0  0  0  0  0  0  0
    2.4214   10.9041    0.0000 C   0  0  0  0  0  0  0  0  0  0  0  0
    2.2646   12.3959    0.0000 C   0  0  0  0  0  0  0  0  0  0  0  0
    0.8943   13.0060    0.0000 C   0  0  0  0  0  0  0  0  0  0  0  0
   -1.8463   14.2262    0.0000 C   0  0  0  0  0  0  0  0  0  0  0  0
   -3.2166   14.8363    0.0000 C   0  0  0  0  0  0  0  0  0  0  0  0
  -10.1537    9.6109    0.0000 C   0  0  0  0  0  0  0  0  0  0  0  0
  -10.3105    8.1192    0.0000 C   0  0  0  0  0  0  0  0  0  0  0  0
  -11.6808    7.5090    0.0000 C   0  0  0  0  0  0  0  0  0  0  0  0
  -12.8944    8.3907    0.0000 C   0  0  0  0  0  0  0  0  0  0  0  0
  -14.2647    7.7806    0.0000 C   0  0  0  0  0  0  0  0  0  0  0  0
  -14.4215    6.2888    0.0000 C   0  0  0  0  0  0  0  0  0  0  0  0
  -15.7918    5.6787    0.0000 C   0  0  0  0  0  0  0  0  0  0  0  0
  -13.2079    5.4072    0.0000 C   0  0  0  0  0  0  0  0  0  0  0  0
  -13.3647    3.9154    0.0000 O   0  0  0  0  0  0  0  0  0  0  0  0
  -11.8376    6.0173    0.0000 N   0  0  0  0  0  0  0  0  0  0  0  0
   -0.7500    1.2990    0.0000 C   0  0  0  0  0  0  0  0  0  0  0  0
    0.7500    1.2990    0.0000 C   0  0  0  0  0  0  0  0  0  0  0  0
  1  2  1  0
  2  3  2  0
  3  4  1  0
  4  5  2  0
  5  6  1  0
  6  7  2  0
  6  8  1  0
  8  9  1  0
  9 10  2  0
 10 11  1  0
 11 12  2  0
 12 13  1  0
 13 14  1  0
 14 15  2  0
 15 16  1  0
 16 17  2  0
 17 18  1  0
 17 19  1  0
 19 20  2  0
 20 21  1  0
 21 22  2  0
 22 23  1  0
 23 24  2  0
 24 25  1  0
 25 26  1  0
 26 27  2  0
 27 28  1  0
 28 29  2  0
 29 30  1  0
 30 31  2  0
 30 32  1  0
 32 33  1  0
 33 34  2  0
 34 35  1  0
 35 36  2  0
 36 37  1  0
 37 38  1  0
 38 39  2  0
 39 40  1  0
 40 41  2  0
 41 42  1  0
 42 43  2  0
 43 44  1  0
 44 45  2  0
 45 46  1  0
 46 47  2  0
 41 48  1  0
 48 49  2  0
 29 50  1  0
 50 51  2  0
 51 52  1  0
 52 53  2  0
 53 54  1  0
 54 55  2  0
 55 56  1  0
 55 57  1  0
 57 58  2  0
 57 59  1  0
  5 60  1  0
 60 61  2  0
 61  2  1  0
 13  9  1  0
 20 14  1  0
 25 21  1  0
 51 26  1  0
 59 52  1  0
 37 33  1  0
 49 38  1  0
 47 42  1  0
M  END
>  <Title>  (277) 
idAAKQgen8

$$$$

     RDKit          2D

 40 45  0  0  0  0  0  0  0  0999 V2000
    0.8311   10.2038    0.0000 C   0  0  0  0  0  0  0  0  0  0  0  0
   -0.5392    9.5937    0.0000 C   0  0  0  0  0  0  0  0  0  0  0  0
   -0.6960    8.1019    0.0000 C   0  0  0  0  0  0  0  0  0  0  0  0
   -2.0663    7.4918    0.0000 C   0  0  0  0  0  0  0  0  0  0  0  0
   -3.2798    8.3735    0.0000 C   0  0  0  0  0  0  0  0  0  0  0  0
   -4.6502    7.7634    0.0000 C   0  0  0  0  0  0  0  0  0  0  0  0
   -5.9492    8.5134    0.0000 N   0  0  0  0  0  0  0  0  0  0  0  0
   -7.0639    7.5097    0.0000 N   0  0  0  0  0  0  0  0  0  0  0  0
   -6.4538    6.1393    0.0000 N   0  0  0  0  0  0  0  0  0  0  0  0
   -4.9620    6.2961    0.0000 N   0  0  0  0  0  0  0  0  0  0  0  0
   -3.9583    5.1814    0.0000 C   0  0  0  0  0  0  0  0  0  0  0  0
   -2.4911    5.4933    0.0000 C   0  0  0  0  0  0  0  0  0  0  0  0
   -1.4874    4.3786    0.0000 C   0  0  0  0  0  0  0  0  0  0  0  0
   -1.9509    2.9520    0.0000 C   0  0  0  0  0  0  0  0  0  0  0  0
   -3.4182    2.6401    0.0000 C   0  0  0  0  0  0  0  0  0  0  0  0
   -4.4218    3.7548    0.0000 C   0  0  0  0  0  0  0  0  0  0  0  0
   -5.8891    3.4430    0.0000 C   0  0  0  0  0  0  0  0  0  0  0  0
   -6.8928    4.5577    0.0000 C   0  0  0  0  0  0  0  0  0  0  0  0
   -8.3600    4.2458    0.0000 C   0  0  0  0  0  0  0  0  0  0  0  0
   -8.8235    2.8192    0.0000 N   0  0  0  0  0  0  0  0  0  0  0  0
   -7.8198    1.7045    0.0000 N   0  0  0  0  0  0  0  0  0  0  0  0
   -6.3526    2.0164    0.0000 C   0  0  0  0  0  0  0  0  0  0  0  0
   -5.3489    0.9017    0.0000 C   0  0  0  0  0  0  0  0  0  0  0  0
   -3.8571    1.0585    0.0000 C   0  0  0  0  0  0  0  0  0  0  0  0
   -3.2470   -0.3119    0.0000 N   0  0  0  0  0  0  0  0  0  0  0  0
   -4.3617   -1.3156    0.0000 N   0  0  0  0  0  0  0  0  0  0  0  0
   -5.6608   -0.5656    0.0000 N   0  0  0  0  0  0  0  0  0  0  0  0
   -7.0311   -1.1757    0.0000 C   0  0  0  0  0  0  0  0  0  0  0  0
   -8.2446   -0.2940    0.0000 C   0  0  0  0  0  0  0  0  0  0  0  0
   -9.6149   -0.9041    0.0000 C   0  0  0  0  0  0  0  0  0  0  0  0
   -9.7717   -2.3959    0.0000 C   0  0  0  0  0  0  0  0  0  0  0  0
  -11.1420   -3.0060    0.0000 C   0  0  0  0  0  0  0  0  0  0  0  0
  -11.2988   -4.4978    0.0000 O   0  0  0  0  0  0  0  0  0  0  0  0
  -12.3556   -2.1243    0.0000 N   0  0  0  0  0  0  0  0  0  0  0  0
  -13.7259   -2.7344    0.0000 O   0  0  0  0  0  0  0  0  0  0  0  0
   -8.5582   -3.2776    0.0000 C   0  0  0  0  0  0  0  0  0  0  0  0
   -7.1879   -2.6675    0.0000 C   0  0  0  0  0  0  0  0  0  0  0  0
   -3.1230    9.8652    0.0000 C   0  0  0  0  0  0  0  0  0  0  0  0
   -4.3366   10.7469    0.0000 O   0  0  0  0  0  0  0  0  0  0  0  0
   -1.7527   10.4753    0.0000 N   0  0  0  0  0  0  0  0  0  0  0  0
  1  2  1  0
  2  3  2  0
  3  4  1  0
  4  5  2  0
  5  6  1  0
  6  7  2  0
  7  8  1  0
  8  9  2  0
  9 10  1  0
 10 11  1  0
 11 12  1  0
 12 13  1  0
 13 14  1  0
 14 15  1  0
 15 16  1  0
 16 17  1  0
 17 18  2  0
 18 19  1  0
 19 20  2  0
 20 21  1  0
 21 22  2  0
 22 23  1  0
 23 24  2  0
 24 25  1  0
 25 26  2  0
 26 27  1  0
 27 28  1  0
 28 29  2  0
 29 30  1  0
 30 31  2  0
 31 32  1  0
 32 33  2  0
 32 34  1  0
 34 35  1  0
 31 36  1  0
 36 37  1  0
  5 38  1  0
 38 39  2  0
 38 40  1  0
 40  2  1  0
 10  6  1  0
 16 11  1  0
 22 17  1  0
 27 23  1  0
 37 28  1  0
M  END
>  <Title>  (278) 
idAAKRgen8

$$$$

     RDKit          2D

  8  8  0  0  0  0  0  0  0  0999 V2000
    3.2286   -0.0000    0.0000 O   0  0  0  0  0  0  0  0  0  0  0  0
    1.7286    0.0000    0.0000 C   0  0  0  0  0  0  0  0  0  0  0  0
    1.0777    1.3515    0.0000 C   0  0  0  0  0  0  0  0  0  0  0  0
   -0.3846    1.6852    0.0000 C   0  0  0  0  0  0  0  0  0  0  0  0
   -1.5574    0.7500    0.0000 C   0  0  0  0  0  0  0  0  0  0  0  0
   -1.5574   -0.7500    0.0000 C   0  0  0  0  0  0  0  0  0  0  0  0
   -0.3846   -1.6852    0.0000 C   0  0  0  0  0  0  0  0  0  0  0  0
    1.0777   -1.3515    0.0000 C   0  0  0  0  0  0  0  0  0  0  0  0
  1  2  1  0
  2  3  2  0
  3  4  1  0
  4  5  2  0
  5  6  1  0
  6  7  2  0
  7  8  1  0
  8  2  1  0
M  END
>  <Title>  (279) 
idAAKSgen8

$$$$

     RDKit          2D

 35 40  0  0  0  0  0  0  0  0999 V2000
   -7.0250   -0.2749    0.0000 O   0  0  0  0  0  0  0  0  0  0  0  0
   -6.7904    1.2066    0.0000 C   0  0  0  0  0  0  0  0  0  0  0  0
   -7.9561    2.1506    0.0000 C   0  0  0  0  0  0  0  0  0  0  0  0
   -7.7214    3.6321    0.0000 C   0  0  0  0  0  0  0  0  0  0  0  0
   -6.3211    4.1697    0.0000 C   0  0  0  0  0  0  0  0  0  0  0  0
   -6.0864    5.6512    0.0000 C   0  0  0  0  0  0  0  0  0  0  0  0
   -7.1471    6.7119    0.0000 N   0  0  0  0  0  0  0  0  0  0  0  0
   -6.4661    8.0484    0.0000 N   0  0  0  0  0  0  0  0  0  0  0  0
   -4.9845    7.8137    0.0000 N   0  0  0  0  0  0  0  0  0  0  0  0
   -4.7499    6.3322    0.0000 N   0  0  0  0  0  0  0  0  0  0  0  0
   -3.4134    5.6512    0.0000 C   0  0  0  0  0  0  0  0  0  0  0  0
   -3.7252    4.1840    0.0000 C   0  0  0  0  0  0  0  0  0  0  0  0
   -3.2617    2.7574    0.0000 C   0  0  0  0  0  0  0  0  0  0  0  0
   -2.1470    1.7537    0.0000 C   0  0  0  0  0  0  0  0  0  0  0  0
   -1.8351    3.2209    0.0000 C   0  0  0  0  0  0  0  0  0  0  0  0
   -0.4086    3.6844    0.0000 C   0  0  0  0  0  0  0  0  0  0  0  0
    0.7062    2.6807    0.0000 C   0  0  0  0  0  0  0  0  0  0  0  0
    0.3943    1.2135    0.0000 N   0  0  0  0  0  0  0  0  0  0  0  0
    1.2760    0.0000    0.0000 N   0  0  0  0  0  0  0  0  0  0  0  0
    0.3943   -1.2135    0.0000 N   0  0  0  0  0  0  0  0  0  0  0  0
   -1.0323   -0.7500    0.0000 N   0  0  0  0  0  0  0  0  0  0  0  0
   -1.0323    0.7500    0.0000 C   0  0  0  0  0  0  0  0  0  0  0  0
    2.0624    4.4873    0.0000 C   0  0  0  0  0  0  0  0  0  0  0  0
    1.5988    5.9139    0.0000 C   0  0  0  0  0  0  0  0  0  0  0  0
    0.4841    6.9176    0.0000 C   0  0  0  0  0  0  0  0  0  0  0  0
    1.1651    8.2541    0.0000 C   0  0  0  0  0  0  0  0  0  0  0  0
    2.6631    8.3326    0.0000 C   0  0  0  0  0  0  0  0  0  0  0  0
    3.3440    9.6691    0.0000 C   0  0  0  0  0  0  0  0  0  0  0  0
    2.5271   10.9271    0.0000 C   0  0  0  0  0  0  0  0  0  0  0  0
    1.0291   10.8486    0.0000 C   0  0  0  0  0  0  0  0  0  0  0  0
    0.3482    9.5121    0.0000 C   0  0  0  0  0  0  0  0  0  0  0  0
   -0.9831    7.2294    0.0000 C   0  0  0  0  0  0  0  0  0  0  0  0
   -2.4097    6.7659    0.0000 C   0  0  0  0  0  0  0  0  0  0  0  0
   -5.1553    3.2257    0.0000 C   0  0  0  0  0  0  0  0  0  0  0  0
   -5.3900    1.7442    0.0000 C   0  0  0  0  0  0  0  0  0  0  0  0
  1  2  1  0
  2  3  2  0
  3  4  1  0
  4  5  2  0
  5  6  1  0
  6  7  2  0
  7  8  1  0
  8  9  2  0
  9 10  1  0
 10 11  1  0
 11 12  2  0
 12 13  1  0
 13 14  2  0
 14 15  1  0
 15 16  2  0
 16 17  1  0
 17 18  1  0
 18 19  1  0
 19 20  2  0
 20 21  1  0
 21 22  2  0
 17 23  2  0
 23 24  1  0
 24 25  2  0
 25 26  1  0
 26 27  2  0
 27 28  1  0
 28 29  2  0
 29 30  1  0
 30 31  2  0
 25 32  1  0
 32 33  2  0
  5 34  1  0
 34 35  2  0
 35  2  1  0
 10  6  1  0
 33 11  1  0
 22 14  1  0
 31 26  1  0
 22 18  1  0
M  END
>  <Title>  (280) 
idAAKTgen8

$$$$

     RDKit          2D

 32 36  0  0  0  0  0  0  0  0999 V2000
    3.0000    0.0000    0.0000 C   0  0  0  0  0  0  0  0  0  0  0  0
    1.5000    0.0000    0.0000 C   0  0  0  0  0  0  0  0  0  0  0  0
    0.7500   -1.2990    0.0000 C   0  0  0  0  0  0  0  0  0  0  0  0
   -0.7500   -1.2990    0.0000 C   0  0  0  0  0  0  0  0  0  0  0  0
   -1.5000    0.0000    0.0000 C   0  0  0  0  0  0  0  0  0  0  0  0
   -3.0000    0.0000    0.0000 C   0  0  0  0  0  0  0  0  0  0  0  0
   -3.7500   -1.2990    0.0000 O   0  0  0  0  0  0  0  0  0  0  0  0
   -3.7500    1.2990    0.0000 N   0  0  0  0  0  0  0  0  0  0  0  0
   -5.2500    1.2990    0.0000 C   0  0  0  0  0  0  0  0  0  0  0  0
   -6.1317    0.0855    0.0000 N   0  0  0  0  0  0  0  0  0  0  0  0
   -7.5583    0.5490    0.0000 N   0  0  0  0  0  0  0  0  0  0  0  0
   -7.5583    2.0490    0.0000 N   0  0  0  0  0  0  0  0  0  0  0  0
   -6.1317    2.5126    0.0000 N   0  0  0  0  0  0  0  0  0  0  0  0
   -5.6682    3.9391    0.0000 C   0  0  0  0  0  0  0  0  0  0  0  0
   -4.2009    4.2510    0.0000 C   0  0  0  0  0  0  0  0  0  0  0  0
   -3.7374    5.6776    0.0000 C   0  0  0  0  0  0  0  0  0  0  0  0
   -4.7411    6.7923    0.0000 C   0  0  0  0  0  0  0  0  0  0  0  0
   -4.2776    8.2189    0.0000 C   0  0  0  0  0  0  0  0  0  0  0  0
   -5.1593    9.4324    0.0000 C   0  0  0  0  0  0  0  0  0  0  0  0
   -4.2776   10.6460    0.0000 N   0  0  0  0  0  0  0  0  0  0  0  0
   -2.8510   10.1824    0.0000 N   0  0  0  0  0  0  0  0  0  0  0  0
   -2.8510    8.6824    0.0000 N   0  0  0  0  0  0  0  0  0  0  0  0
   -1.6375    7.8008    0.0000 C   0  0  0  0  0  0  0  0  0  0  0  0
   -1.7943    6.3090    0.0000 C   0  0  0  0  0  0  0  0  0  0  0  0
   -0.5807    5.4273    0.0000 C   0  0  0  0  0  0  0  0  0  0  0  0
    0.7896    6.0374    0.0000 C   0  0  0  0  0  0  0  0  0  0  0  0
    0.9464    7.5292    0.0000 C   0  0  0  0  0  0  0  0  0  0  0  0
   -0.2671    8.4109    0.0000 C   0  0  0  0  0  0  0  0  0  0  0  0
   -6.2083    6.4805    0.0000 C   0  0  0  0  0  0  0  0  0  0  0  0
   -6.6718    5.0539    0.0000 C   0  0  0  0  0  0  0  0  0  0  0  0
   -0.7500    1.2990    0.0000 C   0  0  0  0  0  0  0  0  0  0  0  0
    0.7500    1.2990    0.0000 C   0  0  0  0  0  0  0  0  0  0  0  0
  1  2  1  0
  2  3  2  0
  3  4  1  0
  4  5  2  0
  5  6  1  0
  6  7  2  0
  6  8  1  0
  8  9  1  0
  9 10  2  0
 10 11  1  0
 11 12  2  0
 12 13  1  0
 13 14  1  0
 14 15  2  0
 15 16  1  0
 16 17  2  0
 17 18  1  0
 18 19  2  0
 19 20  1  0
 20 21  2  0
 21 22  1  0
 22 23  1  0
 23 24  2  0
 24 25  1  0
 25 26  2  0
 26 27  1  0
 27 28  2  0
 17 29  1  0
 29 30  2  0
  5 31  1  0
 31 32  2  0
 32  2  1  0
 13  9  1  0
 30 14  1  0
 22 18  1  0
 28 23  1  0
M  END
>  <Title>  (281) 
idAAKUgen8

$$$$

     RDKit          2D

 24 26  0  0  0  0  0  0  0  0999 V2000
    3.7500   -1.2990    0.0000 C   0  0  0  0  0  0  0  0  0  0  0  0
    3.0000    0.0000    0.0000 O   0  0  0  0  0  0  0  0  0  0  0  0
    1.5000    0.0000    0.0000 C   0  0  0  0  0  0  0  0  0  0  0  0
    0.7500   -1.2990    0.0000 C   0  0  0  0  0  0  0  0  0  0  0  0
   -0.7500   -1.2990    0.0000 C   0  0  0  0  0  0  0  0  0  0  0  0
   -1.5000    0.0000    0.0000 C   0  0  0  0  0  0  0  0  0  0  0  0
   -3.0000    0.0000    0.0000 C   0  0  0  0  0  0  0  0  0  0  0  0
   -3.8817   -1.2135    0.0000 N   0  0  0  0  0  0  0  0  0  0  0  0
   -5.3083   -0.7500    0.0000 N   0  0  0  0  0  0  0  0  0  0  0  0
   -5.3083    0.7500    0.0000 N   0  0  0  0  0  0  0  0  0  0  0  0
   -3.8817    1.2135    0.0000 N   0  0  0  0  0  0  0  0  0  0  0  0
   -3.4182    2.6401    0.0000 C   0  0  0  0  0  0  0  0  0  0  0  0
   -1.9509    2.9520    0.0000 C   0  0  0  0  0  0  0  0  0  0  0  0
   -1.4874    4.3786    0.0000 C   0  0  0  0  0  0  0  0  0  0  0  0
   -2.4911    5.4933    0.0000 C   0  0  0  0  0  0  0  0  0  0  0  0
   -2.0276    6.9199    0.0000 C   0  0  0  0  0  0  0  0  0  0  0  0
   -3.0313    8.0346    0.0000 O   0  0  0  0  0  0  0  0  0  0  0  0
   -0.5604    7.2317    0.0000 N   0  0  0  0  0  0  0  0  0  0  0  0
   -0.0968    8.6583    0.0000 O   0  0  0  0  0  0  0  0  0  0  0  0
   -3.9583    5.1814    0.0000 C   0  0  0  0  0  0  0  0  0  0  0  0
   -4.4218    3.7548    0.0000 C   0  0  0  0  0  0  0  0  0  0  0  0
   -0.7500    1.2990    0.0000 C   0  0  0  0  0  0  0  0  0  0  0  0
    0.7500    1.2990    0.0000 C   0  0  0  0  0  0  0  0  0  0  0  0
    1.5000    2.5981    0.0000 C   0  0  0  0  0  0  0  0  0  0  0  0
  1  2  1  0
  2  3  1  0
  3  4  2  0
  4  5  1  0
  5  6  2  0
  6  7  1  0
  7  8  2  0
  8  9  1  0
  9 10  2  0
 10 11  1  0
 11 12  1  0
 12 13  2  0
 13 14  1  0
 14 15  2  0
 15 16  1  0
 16 17  2  0
 16 18  1  0
 18 19  1  0
 15 20  1  0
 20 21  1  0
  6 22  1  0
 22 23  2  0
 23 24  1  0
 23  3  1  0
 11  7  1  0
 21 12  1  0
M  END
>  <Title>  (282) 
idAAKVgen8

$$$$

     RDKit          2D

 23 24  0  0  0  0  0  0  0  0999 V2000
    7.4342    5.4852    0.0000 C   0  0  0  0  0  0  0  0  0  0  0  0
    5.9349    5.4390    0.0000 O   0  0  0  0  0  0  0  0  0  0  0  0
    5.2253    4.1175    0.0000 C   0  0  0  0  0  0  0  0  0  0  0  0
    6.0149    2.8422    0.0000 C   0  0  0  0  0  0  0  0  0  0  0  0
    5.3053    1.5207    0.0000 C   0  0  0  0  0  0  0  0  0  0  0  0
    3.8060    1.4745    0.0000 C   0  0  0  0  0  0  0  0  0  0  0  0
    4.0816    0.0000    0.0000 C   0  0  0  0  0  0  0  0  0  0  0  0
    3.8060   -1.4745    0.0000 C   0  0  0  0  0  0  0  0  0  0  0  0
    3.0164   -2.7498    0.0000 C   0  0  0  0  0  0  0  0  0  0  0  0
    1.8193   -3.6537    0.0000 C   0  0  0  0  0  0  0  0  0  0  0  0
    0.3766   -4.0642    0.0000 C   0  0  0  0  0  0  0  0  0  0  0  0
   -1.1170   -3.9258    0.0000 C   0  0  0  0  0  0  0  0  0  0  0  0
   -2.4597   -3.2572    0.0000 C   0  0  0  0  0  0  0  0  0  0  0  0
   -3.4703   -2.1487    0.0000 C   0  0  0  0  0  0  0  0  0  0  0  0
   -4.0121   -0.7500    0.0000 C   0  0  0  0  0  0  0  0  0  0  0  0
   -4.0121    0.7500    0.0000 C   0  0  0  0  0  0  0  0  0  0  0  0
   -3.4703    2.1487    0.0000 C   0  0  0  0  0  0  0  0  0  0  0  0
   -2.4597    3.2572    0.0000 C   0  0  0  0  0  0  0  0  0  0  0  0
   -1.1170    3.9258    0.0000 C   0  0  0  0  0  0  0  0  0  0  0  0
    0.3766    4.0642    0.0000 C   0  0  0  0  0  0  0  0  0  0  0  0
    1.8193    3.6537    0.0000 C   0  0  0  0  0  0  0  0  0  0  0  0
    3.0164    2.7498    0.0000 C   0  0  0  0  0  0  0  0  0  0  0  0
    3.7260    4.0713    0.0000 N   0  0  0  0  0  0  0  0  0  0  0  0
  1  2  1  0
  2  3  1  0
  3  4  2  0
  4  5  1  0
  5  6  2  0
  6  7  1  0
  7  8  2  0
  8  9  1  0
  9 10  2  0
 10 11  1  0
 11 12  2  0
 12 13  1  0
 13 14  2  0
 14 15  1  0
 15 16  2  0
 16 17  1  0
 17 18  2  0
 18 19  1  0
 19 20  2  0
 20 21  1  0
 21 22  2  0
 22 23  1  0
 23  3  1  0
 22  6  1  0
M  END
>  <Title>  (283) 
idAAKWgen8

$$$$

     RDKit          2D

 27 29  0  0  0  0  0  0  0  0999 V2000
    3.6441   -0.7464    0.0000 O   0  0  0  0  0  0  0  0  0  0  0  0
    4.9060    0.0646    0.0000 C   0  0  0  0  0  0  0  0  0  0  0  0
    6.2393   -0.6228    0.0000 N   0  0  0  0  0  0  0  0  0  0  0  0
    6.3106   -2.1211    0.0000 C   0  0  0  0  0  0  0  0  0  0  0  0
    7.6439   -2.8084    0.0000 C   0  0  0  0  0  0  0  0  0  0  0  0
    7.7153   -4.3067    0.0000 C   0  0  0  0  0  0  0  0  0  0  0  0
    9.0485   -4.9941    0.0000 C   0  0  0  0  0  0  0  0  0  0  0  0
   10.3104   -4.1831    0.0000 C   0  0  0  0  0  0  0  0  0  0  0  0
   10.2390   -2.6848    0.0000 C   0  0  0  0  0  0  0  0  0  0  0  0
    8.9058   -1.9975    0.0000 C   0  0  0  0  0  0  0  0  0  0  0  0
    4.8346    1.5629    0.0000 C   0  0  0  0  0  0  0  0  0  0  0  0
    6.0965    2.3738    0.0000 C   0  0  0  0  0  0  0  0  0  0  0  0
    6.0251    3.8721    0.0000 C   0  0  0  0  0  0  0  0  0  0  0  0
    4.6919    4.5595    0.0000 C   0  0  0  0  0  0  0  0  0  0  0  0
    3.4300    3.7485    0.0000 C   0  0  0  0  0  0  0  0  0  0  0  0
    3.5014    2.2502    0.0000 C   0  0  0  0  0  0  0  0  0  0  0  0
    2.2395    1.4392    0.0000 C   0  0  0  0  0  0  0  0  0  0  0  0
    2.6621    0.0000    0.0000 C   0  0  0  0  0  0  0  0  0  0  0  0
    2.2395   -1.4392    0.0000 C   0  0  0  0  0  0  0  0  0  0  0  0
    1.1059   -2.4215    0.0000 C   0  0  0  0  0  0  0  0  0  0  0  0
   -0.3789   -2.6350    0.0000 C   0  0  0  0  0  0  0  0  0  0  0  0
   -1.7433   -2.0119    0.0000 C   0  0  0  0  0  0  0  0  0  0  0  0
   -2.5543   -0.7500    0.0000 C   0  0  0  0  0  0  0  0  0  0  0  0
   -2.5543    0.7500    0.0000 C   0  0  0  0  0  0  0  0  0  0  0  0
   -1.7433    2.0119    0.0000 C   0  0  0  0  0  0  0  0  0  0  0  0
   -0.3789    2.6350    0.0000 C   0  0  0  0  0  0  0  0  0  0  0  0
    1.1059    2.4215    0.0000 C   0  0  0  0  0  0  0  0  0  0  0  0
  1  2  2  0
  2  3  1  0
  3  4  1  0
  4  5  1  0
  5  6  2  0
  6  7  1  0
  7  8  2  0
  8  9  1  0
  9 10  2  0
  2 11  1  0
 11 12  1  0
 12 13  1  0
 13 14  1  0
 14 15  1  0
 15 16  1  0
 16 17  1  0
 17 18  1  0
 18 19  2  0
 19 20  1  0
 20 21  2  0
 21 22  1  0
 22 23  2  0
 23 24  1  0
 24 25  2  0
 25 26  1  0
 26 27  1  0
 10  5  1  0
 16 11  1  0
 27 17  1  0
M  END
>  <Title>  (284) 
idAAKXgen8

$$$$

     RDKit          2D

 14 15  0  0  0  0  0  0  0  0999 V2000
    2.7516    6.1053    0.0000 C   0  0  0  0  0  0  0  0  0  0  0  0
    1.8836    4.8820    0.0000 C   0  0  0  0  0  0  0  0  0  0  0  0
    2.6816    3.6119    0.0000 C   0  0  0  0  0  0  0  0  0  0  0  0
    2.3478    2.1495    0.0000 C   0  0  0  0  0  0  0  0  0  0  0  0
    1.0777    1.3515    0.0000 C   0  0  0  0  0  0  0  0  0  0  0  0
    1.7286    0.0000    0.0000 C   0  0  0  0  0  0  0  0  0  0  0  0
    1.0777   -1.3515    0.0000 C   0  0  0  0  0  0  0  0  0  0  0  0
   -0.3846   -1.6852    0.0000 C   0  0  0  0  0  0  0  0  0  0  0  0
   -1.5574   -0.7500    0.0000 C   0  0  0  0  0  0  0  0  0  0  0  0
   -1.5574    0.7500    0.0000 C   0  0  0  0  0  0  0  0  0  0  0  0
   -0.3846    1.6852    0.0000 C   0  0  0  0  0  0  0  0  0  0  0  0
   -1.1827    2.9553    0.0000 C   0  0  0  0  0  0  0  0  0  0  0  0
   -0.8489    4.4177    0.0000 C   0  0  0  0  0  0  0  0  0  0  0  0
    0.4212    5.2158    0.0000 C   0  0  0  0  0  0  0  0  0  0  0  0
  1  2  1  0
  2  3  2  0
  3  4  1  0
  4  5  2  0
  5  6  1  0
  6  7  2  0
  7  8  1  0
  8  9  2  0
  9 10  1  0
 10 11  2  0
 11 12  1  0
 12 13  1  0
 13 14  1  0
 14  2  1  0
 11  5  1  0
M  END
>  <Title>  (285) 
idAAKYgen8

$$$$

     RDKit          2D

 19 19  0  0  0  0  0  0  0  0999 V2000
    5.8191    0.0000    0.0000 C   0  0  0  0  0  0  0  0  0  0  0  0
    4.3191    0.0000    0.0000 C   0  0  0  0  0  0  0  0  0  0  0  0
    4.0586   -1.4772    0.0000 C   0  0  0  0  0  0  0  0  0  0  0  0
    3.3086   -2.7762    0.0000 C   0  0  0  0  0  0  0  0  0  0  0  0
    2.1595   -3.7404    0.0000 C   0  0  0  0  0  0  0  0  0  0  0  0
    0.7500   -4.2535    0.0000 C   0  0  0  0  0  0  0  0  0  0  0  0
   -0.7500   -4.2535    0.0000 C   0  0  0  0  0  0  0  0  0  0  0  0
   -2.1595   -3.7404    0.0000 C   0  0  0  0  0  0  0  0  0  0  0  0
   -3.3086   -2.7762    0.0000 C   0  0  0  0  0  0  0  0  0  0  0  0
   -4.0586   -1.4772    0.0000 C   0  0  0  0  0  0  0  0  0  0  0  0
   -4.3191    0.0000    0.0000 C   0  0  0  0  0  0  0  0  0  0  0  0
   -4.0586    1.4772    0.0000 C   0  0  0  0  0  0  0  0  0  0  0  0
   -3.3086    2.7762    0.0000 C   0  0  0  0  0  0  0  0  0  0  0  0
   -2.1595    3.7404    0.0000 C   0  0  0  0  0  0  0  0  0  0  0  0
   -0.7500    4.2535    0.0000 C   0  0  0  0  0  0  0  0  0  0  0  0
    0.7500    4.2535    0.0000 C   0  0  0  0  0  0  0  0  0  0  0  0
    2.1595    3.7404    0.0000 C   0  0  0  0  0  0  0  0  0  0  0  0
    3.3086    2.7762    0.0000 C   0  0  0  0  0  0  0  0  0  0  0  0
    4.0586    1.4772    0.0000 N   0  0  0  0  0  0  0  0  0  0  0  0
  1  2  1  0
  2  3  2  0
  3  4  1  0
  4  5  2  0
  5  6  1  0
  6  7  2  0
  7  8  1  0
  8  9  2  0
  9 10  1  0
 10 11  2  0
 11 12  1  0
 12 13  2  0
 13 14  1  0
 14 15  2  0
 15 16  1  0
 16 17  2  0
 17 18  1  0
 18 19  1  0
 19  2  1  0
M  END
>  <Title>  (286) 
idAAKZgen8

$$$$

     RDKit          2D

 20 20  0  0  0  0  0  0  0  0999 V2000
    6.5691   -1.2990    0.0000 C   0  0  0  0  0  0  0  0  0  0  0  0
    5.8191    0.0000    0.0000 O   0  0  0  0  0  0  0  0  0  0  0  0
    4.3191    0.0000    0.0000 C   0  0  0  0  0  0  0  0  0  0  0  0
    4.0586   -1.4772    0.0000 C   0  0  0  0  0  0  0  0  0  0  0  0
    3.3086   -2.7762    0.0000 C   0  0  0  0  0  0  0  0  0  0  0  0
    2.1595   -3.7404    0.0000 C   0  0  0  0  0  0  0  0  0  0  0  0
    0.7500   -4.2535    0.0000 C   0  0  0  0  0  0  0  0  0  0  0  0
   -0.7500   -4.2535    0.0000 C   0  0  0  0  0  0  0  0  0  0  0  0
   -2.1595   -3.7404    0.0000 C   0  0  0  0  0  0  0  0  0  0  0  0
   -3.3086   -2.7762    0.0000 C   0  0  0  0  0  0  0  0  0  0  0  0
   -4.0586   -1.4772    0.0000 C   0  0  0  0  0  0  0  0  0  0  0  0
   -4.3191    0.0000    0.0000 C   0  0  0  0  0  0  0  0  0  0  0  0
   -4.0586    1.4772    0.0000 C   0  0  0  0  0  0  0  0  0  0  0  0
   -3.3086    2.7762    0.0000 C   0  0  0  0  0  0  0  0  0  0  0  0
   -2.1595    3.7404    0.0000 C   0  0  0  0  0  0  0  0  0  0  0  0
   -0.7500    4.2535    0.0000 C   0  0  0  0  0  0  0  0  0  0  0  0
    0.7500    4.2535    0.0000 C   0  0  0  0  0  0  0  0  0  0  0  0
    2.1595    3.7404    0.0000 C   0  0  0  0  0  0  0  0  0  0  0  0
    3.3086    2.7762    0.0000 C   0  0  0  0  0  0  0  0  0  0  0  0
    4.0586    1.4772    0.0000 C   0  0  0  0  0  0  0  0  0  0  0  0
  1  2  1  0
  2  3  1  0
  3  4  2  0
  4  5  1  0
  5  6  2  0
  6  7  1  0
  7  8  2  0
  8  9  1  0
  9 10  2  0
 10 11  1  0
 11 12  2  0
 12 13  1  0
 13 14  2  0
 14 15  1  0
 15 16  2  0
 16 17  1  0
 17 18  2  0
 18 19  1  0
 19 20  2  0
 20  3  1  0
M  END
>  <Title>  (287) 
idAALAgen8

$$$$

     RDKit          2D

 38 43  0  0  0  0  0  0  0  0999 V2000
    6.4793    2.8716    0.0000 C   0  0  0  0  0  0  0  0  0  0  0  0
    5.3303    3.8358    0.0000 C   0  0  0  0  0  0  0  0  0  0  0  0
    5.5907    5.3130    0.0000 C   0  0  0  0  0  0  0  0  0  0  0  0
    4.4417    6.2772    0.0000 C   0  0  0  0  0  0  0  0  0  0  0  0
    3.0321    5.7642    0.0000 C   0  0  0  0  0  0  0  0  0  0  0  0
    1.8831    6.7284    0.0000 C   0  0  0  0  0  0  0  0  0  0  0  0
    1.9877    8.2247    0.0000 N   0  0  0  0  0  0  0  0  0  0  0  0
    0.5969    8.7866    0.0000 N   0  0  0  0  0  0  0  0  0  0  0  0
   -0.3673    7.6375    0.0000 N   0  0  0  0  0  0  0  0  0  0  0  0
    0.4276    6.3655    0.0000 N   0  0  0  0  0  0  0  0  0  0  0  0
   -0.1343    4.9747    0.0000 C   0  0  0  0  0  0  0  0  0  0  0  0
    0.9804    3.9710    0.0000 C   0  0  0  0  0  0  0  0  0  0  0  0
    1.1892    2.4856    0.0000 C   0  0  0  0  0  0  0  0  0  0  0  0
    0.3943    1.2135    0.0000 C   0  0  0  0  0  0  0  0  0  0  0  0
    1.2760    0.0000    0.0000 C   0  0  0  0  0  0  0  0  0  0  0  0
    0.3943   -1.2135    0.0000 C   0  0  0  0  0  0  0  0  0  0  0  0
   -1.0323   -0.7500    0.0000 C   0  0  0  0  0  0  0  0  0  0  0  0
   -1.0323    0.7500    0.0000 C   0  0  0  0  0  0  0  0  0  0  0  0
   -2.4231    1.3119    0.0000 C   0  0  0  0  0  0  0  0  0  0  0  0
   -3.1273    2.6363    0.0000 C   0  0  0  0  0  0  0  0  0  0  0  0
   -2.8154    4.1036    0.0000 C   0  0  0  0  0  0  0  0  0  0  0  0
   -1.6334    5.0270    0.0000 C   0  0  0  0  0  0  0  0  0  0  0  0
   -2.0969    6.4536    0.0000 C   0  0  0  0  0  0  0  0  0  0  0  0
   -1.0932    7.5683    0.0000 C   0  0  0  0  0  0  0  0  0  0  0  0
   -1.5567    8.9949    0.0000 C   0  0  0  0  0  0  0  0  0  0  0  0
   -3.0240    9.3068    0.0000 C   0  0  0  0  0  0  0  0  0  0  0  0
   -4.0277    8.1921    0.0000 C   0  0  0  0  0  0  0  0  0  0  0  0
   -3.5641    6.7655    0.0000 C   0  0  0  0  0  0  0  0  0  0  0  0
   -4.5678    5.6508    0.0000 C   0  0  0  0  0  0  0  0  0  0  0  0
   -6.0351    5.9626    0.0000 C   0  0  0  0  0  0  0  0  0  0  0  0
   -7.0387    4.8479    0.0000 C   0  0  0  0  0  0  0  0  0  0  0  0
   -6.5752    3.4213    0.0000 C   0  0  0  0  0  0  0  0  0  0  0  0
   -7.5789    2.3066    0.0000 C   0  0  0  0  0  0  0  0  0  0  0  0
   -5.1080    3.1095    0.0000 C   0  0  0  0  0  0  0  0  0  0  0  0
   -4.6445    1.6829    0.0000 O   0  0  0  0  0  0  0  0  0  0  0  0
   -4.1043    4.2242    0.0000 N   0  0  0  0  0  0  0  0  0  0  0  0
    2.7716    4.2870    0.0000 C   0  0  0  0  0  0  0  0  0  0  0  0
    3.9207    3.3228    0.0000 C   0  0  0  0  0  0  0  0  0  0  0  0
  1  2  1  0
  2  3  2  0
  3  4  1  0
  4  5  2  0
  5  6  1  0
  6  7  2  0
  7  8  1  0
  8  9  2  0
  9 10  1  0
 10 11  1  0
 11 12  2  0
 12 13  1  0
 13 14  2  0
 14 15  1  0
 15 16  2  0
 16 17  1  0
 17 18  2  0
 18 19  1  0
 19 20  2  0
 20 21  1  0
 21 22  2  0
 22 23  1  0
 23 24  2  0
 24 25  1  0
 25 26  2  0
 26 27  1  0
 27 28  2  0
 28 29  1  0
 29 30  2  0
 30 31  1  0
 31 32  2  0
 32 33  1  0
 32 34  1  0
 34 35  2  0
 34 36  1  0
  5 37  1  0
 37 38  2  0
 38  2  1  0
 10  6  1  0
 22 11  1  0
 28 23  1  0
 36 29  1  0
 18 14  1  0
M  END
>  <Title>  (288) 
idAALBgen8

$$$$

     RDKit          2D

 24 26  0  0  0  0  0  0  0  0999 V2000
    3.0000    0.0000    0.0000 C   0  0  0  0  0  0  0  0  0  0  0  0
    1.5000    0.0000    0.0000 C   0  0  0  0  0  0  0  0  0  0  0  0
    0.7500   -1.2990    0.0000 C   0  0  0  0  0  0  0  0  0  0  0  0
   -0.7500   -1.2990    0.0000 C   0  0  0  0  0  0  0  0  0  0  0  0
   -1.5000    0.0000    0.0000 C   0  0  0  0  0  0  0  0  0  0  0  0
   -3.0000    0.0000    0.0000 C   0  0  0  0  0  0  0  0  0  0  0  0
   -3.7500   -1.2990    0.0000 O   0  0  0  0  0  0  0  0  0  0  0  0
   -3.7500    1.2990    0.0000 N   0  0  0  0  0  0  0  0  0  0  0  0
   -5.2500    1.2990    0.0000 C   0  0  0  0  0  0  0  0  0  0  0  0
   -6.1317    0.0855    0.0000 N   0  0  0  0  0  0  0  0  0  0  0  0
   -7.5583    0.5490    0.0000 N   0  0  0  0  0  0  0  0  0  0  0  0
   -7.5583    2.0490    0.0000 N   0  0  0  0  0  0  0  0  0  0  0  0
   -6.1317    2.5126    0.0000 N   0  0  0  0  0  0  0  0  0  0  0  0
   -5.6682    3.9391    0.0000 C   0  0  0  0  0  0  0  0  0  0  0  0
   -6.5498    5.1527    0.0000 N   0  0  0  0  0  0  0  0  0  0  0  0
   -5.6682    6.3662    0.0000 C   0  0  0  0  0  0  0  0  0  0  0  0
   -6.1317    7.7928    0.0000 O   0  0  0  0  0  0  0  0  0  0  0  0
   -4.2416    5.9027    0.0000 C   0  0  0  0  0  0  0  0  0  0  0  0
   -3.0280    6.7844    0.0000 C   0  0  0  0  0  0  0  0  0  0  0  0
   -4.2416    4.4027    0.0000 C   0  0  0  0  0  0  0  0  0  0  0  0
   -3.0280    3.5210    0.0000 O   0  0  0  0  0  0  0  0  0  0  0  0
   -0.7500    1.2990    0.0000 N   0  0  0  0  0  0  0  0  0  0  0  0
    0.7500    1.2990    0.0000 C   0  0  0  0  0  0  0  0  0  0  0  0
    1.5000    2.5981    0.0000 O   0  0  0  0  0  0  0  0  0  0  0  0
  1  2  1  0
  2  3  2  0
  3  4  1  0
  4  5  2  0
  5  6  1  0
  6  7  2  0
  6  8  1  0
  8  9  1  0
  9 10  2  0
 10 11  1  0
 11 12  2  0
 12 13  1  0
 13 14  1  0
 14 15  1  0
 15 16  1  0
 16 17  2  0
 16 18  1  0
 18 19  1  0
 18 20  1  0
 20 21  2  0
  5 22  1  0
 22 23  1  0
 23 24  2  0
 23  2  1  0
 13  9  1  0
 20 14  1  0
M  END
>  <Title>  (289) 
idAALCgen8

$$$$

     RDKit          2D

 44 50  0  0  0  0  0  0  0  0999 V2000
    2.7225    7.3395    0.0000 C   0  0  0  0  0  0  0  0  0  0  0  0
    1.5090    6.4579    0.0000 C   0  0  0  0  0  0  0  0  0  0  0  0
    2.1191    5.0875    0.0000 C   0  0  0  0  0  0  0  0  0  0  0  0
    2.1191    3.5875    0.0000 C   0  0  0  0  0  0  0  0  0  0  0  0
    1.5090    2.2172    0.0000 C   0  0  0  0  0  0  0  0  0  0  0  0
    2.7225    1.3355    0.0000 C   0  0  0  0  0  0  0  0  0  0  0  0
    2.5657   -0.1562    0.0000 C   0  0  0  0  0  0  0  0  0  0  0  0
    3.7793   -1.0379    0.0000 C   0  0  0  0  0  0  0  0  0  0  0  0
    5.1496   -0.4278    0.0000 C   0  0  0  0  0  0  0  0  0  0  0  0
    6.5199   -1.0379    0.0000 N   0  0  0  0  0  0  0  0  0  0  0  0
    7.5236    0.0768    0.0000 N   0  0  0  0  0  0  0  0  0  0  0  0
    6.7736    1.3758    0.0000 N   0  0  0  0  0  0  0  0  0  0  0  0
    5.3064    1.0640    0.0000 N   0  0  0  0  0  0  0  0  0  0  0  0
    4.0929    1.9456    0.0000 C   0  0  0  0  0  0  0  0  0  0  0  0
    4.2497    3.4374    0.0000 O   0  0  0  0  0  0  0  0  0  0  0  0
    0.3943    1.2135    0.0000 C   0  0  0  0  0  0  0  0  0  0  0  0
    1.2760    0.0000    0.0000 N   0  0  0  0  0  0  0  0  0  0  0  0
    0.3943   -1.2135    0.0000 N   0  0  0  0  0  0  0  0  0  0  0  0
   -1.0323   -0.7500    0.0000 N   0  0  0  0  0  0  0  0  0  0  0  0
   -1.0323    0.7500    0.0000 N   0  0  0  0  0  0  0  0  0  0  0  0
   -2.5241    0.9068    0.0000 C   0  0  0  0  0  0  0  0  0  0  0  0
   -2.5241   -0.5932    0.0000 C   0  0  0  0  0  0  0  0  0  0  0  0
   -3.8231   -1.3432    0.0000 C   0  0  0  0  0  0  0  0  0  0  0  0
   -5.1221   -0.5932    0.0000 C   0  0  0  0  0  0  0  0  0  0  0  0
   -5.1221    0.9068    0.0000 C   0  0  0  0  0  0  0  0  0  0  0  0
   -3.8231    1.6568    0.0000 C   0  0  0  0  0  0  0  0  0  0  0  0
   -4.7048    2.8703    0.0000 C   0  0  0  0  0  0  0  0  0  0  0  0
   -6.0751    2.2602    0.0000 O   0  0  0  0  0  0  0  0  0  0  0  0
   -5.0167    4.3375    0.0000 C   0  0  0  0  0  0  0  0  0  0  0  0
   -4.7048    5.8048    0.0000 C   0  0  0  0  0  0  0  0  0  0  0  0
   -3.8231    7.0183    0.0000 C   0  0  0  0  0  0  0  0  0  0  0  0
   -2.5241    7.7683    0.0000 C   0  0  0  0  0  0  0  0  0  0  0  0
   -2.9876    9.1949    0.0000 C   0  0  0  0  0  0  0  0  0  0  0  0
   -1.0323    7.9251    0.0000 C   0  0  0  0  0  0  0  0  0  0  0  0
   -0.8755    9.4169    0.0000 O   0  0  0  0  0  0  0  0  0  0  0  0
    0.3943    7.4616    0.0000 N   0  0  0  0  0  0  0  0  0  0  0  0
   -6.4991    4.1087    0.0000 N   0  0  0  0  0  0  0  0  0  0  0  0
   -7.2666    5.3975    0.0000 N   0  0  0  0  0  0  0  0  0  0  0  0
   -8.7295    5.0658    0.0000 N   0  0  0  0  0  0  0  0  0  0  0  0
   -8.8661    3.5721    0.0000 N   0  0  0  0  0  0  0  0  0  0  0  0
   -7.4876    2.9805    0.0000 C   0  0  0  0  0  0  0  0  0  0  0  0
   -7.5197    1.4809    0.0000 N   0  0  0  0  0  0  0  0  0  0  0  0
   -6.5803    0.3115    0.0000 C   0  0  0  0  0  0  0  0  0  0  0  0
   -7.3580   -0.9712    0.0000 O   0  0  0  0  0  0  0  0  0  0  0  0
  1  2  1  0
  2  3  2  0
  3  4  1  0
  4  5  2  0
  5  6  1  0
  6  7  1  0
  7  8  1  0
  8  9  1  0
  9 10  2  0
 10 11  1  0
 11 12  2  0
 12 13  1  0
 13 14  1  0
 14 15  2  0
  5 16  1  0
 16 17  2  0
 17 18  1  0
 18 19  2  0
 19 20  1  0
 20 21  1  0
 21 22  2  0
 22 23  1  0
 23 24  2  0
 24 25  1  0
 25 26  2  0
 26 27  1  0
 27 28  2  0
 27 29  1  0
 29 30  2  0
 30 31  1  0
 31 32  2  0
 32 33  1  0
 32 34  1  0
 34 35  2  0
 34 36  1  0
 29 37  1  0
 37 38  1  0
 38 39  2  0
 39 40  1  0
 40 41  2  0
 41 42  1  0
 42 43  1  0
 43 44  2  0
 36  2  1  0
 41 37  1  0
 14  6  1  0
 20 16  1  0
 26 21  1  0
 13  9  1  0
 43 24  1  0
M  END
>  <Title>  (290) 
idAALDgen8

$$$$

     RDKit          2D

 28 28  0  0  0  0  0  0  0  0999 V2000
    8.4722   -1.2990    0.0000 C   0  0  0  0  0  0  0  0  0  0  0  0
    7.7222    0.0000    0.0000 O   0  0  0  0  0  0  0  0  0  0  0  0
    6.2222    0.0000    0.0000 C   0  0  0  0  0  0  0  0  0  0  0  0
    6.0414   -1.4891    0.0000 C   0  0  0  0  0  0  0  0  0  0  0  0
    5.5095   -2.8916    0.0000 C   0  0  0  0  0  0  0  0  0  0  0  0
    4.6574   -4.1261    0.0000 C   0  0  0  0  0  0  0  0  0  0  0  0
    3.5346   -5.1207    0.0000 C   0  0  0  0  0  0  0  0  0  0  0  0
    2.2064   -5.8178    0.0000 C   0  0  0  0  0  0  0  0  0  0  0  0
    0.7500   -6.1768    0.0000 C   0  0  0  0  0  0  0  0  0  0  0  0
   -0.7500   -6.1768    0.0000 C   0  0  0  0  0  0  0  0  0  0  0  0
   -2.2064   -5.8178    0.0000 C   0  0  0  0  0  0  0  0  0  0  0  0
   -3.5346   -5.1207    0.0000 C   0  0  0  0  0  0  0  0  0  0  0  0
   -4.6574   -4.1261    0.0000 C   0  0  0  0  0  0  0  0  0  0  0  0
   -5.5095   -2.8916    0.0000 C   0  0  0  0  0  0  0  0  0  0  0  0
   -6.0414   -1.4891    0.0000 C   0  0  0  0  0  0  0  0  0  0  0  0
   -6.2222    0.0000    0.0000 C   0  0  0  0  0  0  0  0  0  0  0  0
   -6.0414    1.4891    0.0000 C   0  0  0  0  0  0  0  0  0  0  0  0
   -5.5095    2.8916    0.0000 C   0  0  0  0  0  0  0  0  0  0  0  0
   -4.6574    4.1261    0.0000 C   0  0  0  0  0  0  0  0  0  0  0  0
   -3.5346    5.1207    0.0000 C   0  0  0  0  0  0  0  0  0  0  0  0
   -2.2064    5.8178    0.0000 C   0  0  0  0  0  0  0  0  0  0  0  0
   -0.7500    6.1768    0.0000 C   0  0  0  0  0  0  0  0  0  0  0  0
    0.7500    6.1768    0.0000 C   0  0  0  0  0  0  0  0  0  0  0  0
    2.2064    5.8178    0.0000 C   0  0  0  0  0  0  0  0  0  0  0  0
    3.5346    5.1207    0.0000 C   0  0  0  0  0  0  0  0  0  0  0  0
    4.6574    4.1261    0.0000 C   0  0  0  0  0  0  0  0  0  0  0  0
    5.5095    2.8916    0.0000 C   0  0  0  0  0  0  0  0  0  0  0  0
    6.0414    1.4891    0.0000 N   0  0  0  0  0  0  0  0  0  0  0  0
  1  2  1  0
  2  3  1  0
  3  4  2  0
  4  5  1  0
  5  6  2  0
  6  7  1  0
  7  8  2  0
  8  9  1  0
  9 10  2  0
 10 11  1  0
 11 12  2  0
 12 13  1  0
 13 14  2  0
 14 15  1  0
 15 16  2  0
 16 17  1  0
 17 18  2  0
 18 19  1  0
 19 20  2  0
 20 21  1  0
 21 22  2  0
 22 23  1  0
 23 24  2  0
 24 25  1  0
 25 26  2  0
 26 27  1  0
 27 28  1  0
 28  3  1  0
M  END
>  <Title>  (291) 
idAALEgen8

$$$$

     RDKit          2D

 21 21  0  0  0  0  0  0  0  0999 V2000
    6.2943    0.0000    0.0000 N   0  0  0  0  0  0  0  0  0  0  0  0
    4.7943    0.0000    0.0000 C   0  0  0  0  0  0  0  0  0  0  0  0
    4.5597   -1.4815    0.0000 C   0  0  0  0  0  0  0  0  0  0  0  0
    3.8787   -2.8180    0.0000 C   0  0  0  0  0  0  0  0  0  0  0  0
    2.8180   -3.8787    0.0000 C   0  0  0  0  0  0  0  0  0  0  0  0
    1.4815   -4.5597    0.0000 C   0  0  0  0  0  0  0  0  0  0  0  0
   -0.0000   -4.7943    0.0000 C   0  0  0  0  0  0  0  0  0  0  0  0
   -1.4815   -4.5597    0.0000 C   0  0  0  0  0  0  0  0  0  0  0  0
   -2.8180   -3.8787    0.0000 C   0  0  0  0  0  0  0  0  0  0  0  0
   -3.8787   -2.8180    0.0000 C   0  0  0  0  0  0  0  0  0  0  0  0
   -4.5597   -1.4815    0.0000 C   0  0  0  0  0  0  0  0  0  0  0  0
   -4.7943    0.0000    0.0000 C   0  0  0  0  0  0  0  0  0  0  0  0
   -4.5597    1.4815    0.0000 C   0  0  0  0  0  0  0  0  0  0  0  0
   -3.8787    2.8180    0.0000 C   0  0  0  0  0  0  0  0  0  0  0  0
   -2.8180    3.8787    0.0000 C   0  0  0  0  0  0  0  0  0  0  0  0
   -1.4815    4.5597    0.0000 C   0  0  0  0  0  0  0  0  0  0  0  0
    0.0000    4.7943    0.0000 C   0  0  0  0  0  0  0  0  0  0  0  0
    1.4815    4.5597    0.0000 C   0  0  0  0  0  0  0  0  0  0  0  0
    2.8180    3.8787    0.0000 C   0  0  0  0  0  0  0  0  0  0  0  0
    3.8787    2.8180    0.0000 C   0  0  0  0  0  0  0  0  0  0  0  0
    4.5597    1.4815    0.0000 C   0  0  0  0  0  0  0  0  0  0  0  0
  1  2  1  0
  2  3  2  0
  3  4  1  0
  4  5  2  0
  5  6  1  0
  6  7  2  0
  7  8  1  0
  8  9  2  0
  9 10  1  0
 10 11  2  0
 11 12  1  0
 12 13  2  0
 13 14  1  0
 14 15  2  0
 15 16  1  0
 16 17  2  0
 17 18  1  0
 18 19  2  0
 19 20  1  0
 20 21  2  0
 21  2  1  0
M  END
>  <Title>  (292) 
idAALFgen8

$$$$

     RDKit          2D

 12 12  0  0  0  0  0  0  0  0999 V2000
    3.9271    0.0000    0.0000 C   0  0  0  0  0  0  0  0  0  0  0  0
    2.4271    0.0000    0.0000 C   0  0  0  0  0  0  0  0  0  0  0  0
    1.9635   -1.4266    0.0000 C   0  0  0  0  0  0  0  0  0  0  0  0
    0.7500   -2.3083    0.0000 C   0  0  0  0  0  0  0  0  0  0  0  0
   -0.7500   -2.3083    0.0000 C   0  0  0  0  0  0  0  0  0  0  0  0
   -1.9635   -1.4266    0.0000 C   0  0  0  0  0  0  0  0  0  0  0  0
   -2.4271    0.0000    0.0000 C   0  0  0  0  0  0  0  0  0  0  0  0
   -1.9635    1.4266    0.0000 C   0  0  0  0  0  0  0  0  0  0  0  0
   -0.7500    2.3083    0.0000 C   0  0  0  0  0  0  0  0  0  0  0  0
    0.7500    2.3083    0.0000 C   0  0  0  0  0  0  0  0  0  0  0  0
    1.9635    1.4266    0.0000 C   0  0  0  0  0  0  0  0  0  0  0  0
    3.1771    2.3083    0.0000 O   0  0  0  0  0  0  0  0  0  0  0  0
  1  2  1  0
  2  3  2  0
  3  4  1  0
  4  5  2  0
  5  6  1  0
  6  7  2  0
  7  8  1  0
  8  9  2  0
  9 10  1  0
 10 11  2  0
 11 12  1  0
 11  2  1  0
M  END
>  <Title>  (293) 
idAALGgen8

$$$$

     RDKit          2D

 46 52  0  0  0  0  0  0  0  0999 V2000
    3.3197   -1.5042    0.0000 C   0  0  0  0  0  0  0  0  0  0  0  0
    1.9494   -2.1143    0.0000 C   0  0  0  0  0  0  0  0  0  0  0  0
    0.7359   -1.2326    0.0000 C   0  0  0  0  0  0  0  0  0  0  0  0
   -0.6344   -1.8427    0.0000 C   0  0  0  0  0  0  0  0  0  0  0  0
   -0.7912   -3.3345    0.0000 C   0  0  0  0  0  0  0  0  0  0  0  0
   -2.1615   -3.9446    0.0000 N   0  0  0  0  0  0  0  0  0  0  0  0
   -2.3183   -5.4364    0.0000 C   0  0  0  0  0  0  0  0  0  0  0  0
   -1.1048   -6.3181    0.0000 O   0  0  0  0  0  0  0  0  0  0  0  0
   -3.6887   -6.0465    0.0000 C   0  0  0  0  0  0  0  0  0  0  0  0
   -3.8454   -7.5383    0.0000 C   0  0  0  0  0  0  0  0  0  0  0  0
   -5.2158   -8.1484    0.0000 C   0  0  0  0  0  0  0  0  0  0  0  0
   -6.4293   -7.2667    0.0000 N   0  0  0  0  0  0  0  0  0  0  0  0
   -6.2725   -5.7749    0.0000 C   0  0  0  0  0  0  0  0  0  0  0  0
   -4.9022   -5.1648    0.0000 N   0  0  0  0  0  0  0  0  0  0  0  0
   -4.7454   -3.6731    0.0000 C   0  0  0  0  0  0  0  0  0  0  0  0
   -3.4463   -2.9231    0.0000 C   0  0  0  0  0  0  0  0  0  0  0  0
   -3.7582   -1.4558    0.0000 N   0  0  0  0  0  0  0  0  0  0  0  0
   -5.2500   -1.2990    0.0000 N   0  0  0  0  0  0  0  0  0  0  0  0
   -5.8601   -2.6694    0.0000 N   0  0  0  0  0  0  0  0  0  0  0  0
   -7.3273   -2.9812    0.0000 C   0  0  0  0  0  0  0  0  0  0  0  0
   -7.9374   -4.3515    0.0000 C   0  0  0  0  0  0  0  0  0  0  0  0
   -9.4292   -4.1947    0.0000 N   0  0  0  0  0  0  0  0  0  0  0  0
   -9.7411   -2.7275    0.0000 N   0  0  0  0  0  0  0  0  0  0  0  0
   -8.4420   -1.9775    0.0000 N   0  0  0  0  0  0  0  0  0  0  0  0
   -8.2853   -0.4857    0.0000 C   0  0  0  0  0  0  0  0  0  0  0  0
   -9.4988    0.3959    0.0000 C   0  0  0  0  0  0  0  0  0  0  0  0
   -9.3420    1.8877    0.0000 C   0  0  0  0  0  0  0  0  0  0  0  0
   -7.9717    2.4978    0.0000 C   0  0  0  0  0  0  0  0  0  0  0  0
   -7.8149    3.9896    0.0000 C   0  0  0  0  0  0  0  0  0  0  0  0
   -9.0284    4.8713    0.0000 O   0  0  0  0  0  0  0  0  0  0  0  0
   -6.4446    4.5997    0.0000 N   0  0  0  0  0  0  0  0  0  0  0  0
   -6.2878    6.0915    0.0000 C   0  0  0  0  0  0  0  0  0  0  0  0
   -7.4025    7.0952    0.0000 N   0  0  0  0  0  0  0  0  0  0  0  0
   -6.7924    8.4655    0.0000 N   0  0  0  0  0  0  0  0  0  0  0  0
   -5.3006    8.3087    0.0000 N   0  0  0  0  0  0  0  0  0  0  0  0
   -4.9887    6.8415    0.0000 N   0  0  0  0  0  0  0  0  0  0  0  0
   -3.6184    6.2314    0.0000 C   0  0  0  0  0  0  0  0  0  0  0  0
   -3.4616    4.7396    0.0000 C   0  0  0  0  0  0  0  0  0  0  0  0
   -2.0913    4.1295    0.0000 C   0  0  0  0  0  0  0  0  0  0  0  0
   -0.8778    5.0112    0.0000 C   0  0  0  0  0  0  0  0  0  0  0  0
   -1.0346    6.5030    0.0000 C   0  0  0  0  0  0  0  0  0  0  0  0
   -2.4049    7.1131    0.0000 C   0  0  0  0  0  0  0  0  0  0  0  0
   -6.7581    1.6161    0.0000 C   0  0  0  0  0  0  0  0  0  0  0  0
   -6.9149    0.1244    0.0000 C   0  0  0  0  0  0  0  0  0  0  0  0
    0.4223   -4.2162    0.0000 C   0  0  0  0  0  0  0  0  0  0  0  0
    1.7926   -3.6061    0.0000 C   0  0  0  0  0  0  0  0  0  0  0  0
  1  2  1  0
  2  3  2  0
  3  4  1  0
  4  5  2  0
  5  6  1  0
  6  7  1  0
  7  8  2  0
  7  9  1  0
  9 10  1  0
 10 11  1  0
 11 12  1  0
 12 13  2  0
 13 14  1  0
 14 15  1  0
 15 16  2  0
 16 17  1  0
 17 18  2  0
 18 19  1  0
 19 20  1  0
 20 21  2  0
 21 22  1  0
 22 23  2  0
 23 24  1  0
 24 25  1  0
 25 26  2  0
 26 27  1  0
 27 28  2  0
 28 29  1  0
 29 30  2  0
 29 31  1  0
 31 32  1  0
 32 33  2  0
 33 34  1  0
 34 35  2  0
 35 36  1  0
 36 37  1  0
 37 38  2  0
 38 39  1  0
 39 40  2  0
 40 41  1  0
 41 42  2  0
 28 43  1  0
 43 44  2  0
  5 45  1  0
 45 46  2  0
 46  2  1  0
 14  9  1  0
 19 15  1  0
 24 20  1  0
 44 25  1  0
 36 32  1  0
 42 37  1  0
M  END
>  <Title>  (294) 
idAALHgen8

$$$$

     RDKit          2D

  7  7  0  0  0  0  0  0  0  0999 V2000
    3.0000    0.0000    0.0000 C   0  0  0  0  0  0  0  0  0  0  0  0
    1.5000    0.0000    0.0000 C   0  0  0  0  0  0  0  0  0  0  0  0
    0.7500   -1.2990    0.0000 C   0  0  0  0  0  0  0  0  0  0  0  0
   -0.7500   -1.2990    0.0000 C   0  0  0  0  0  0  0  0  0  0  0  0
   -1.5000    0.0000    0.0000 C   0  0  0  0  0  0  0  0  0  0  0  0
   -0.7500    1.2990    0.0000 C   0  0  0  0  0  0  0  0  0  0  0  0
    0.7500    1.2990    0.0000 C   0  0  0  0  0  0  0  0  0  0  0  0
  1  2  1  0
  2  3  2  0
  3  4  1  0
  4  5  2  0
  5  6  1  0
  6  7  2  0
  7  2  1  0
M  END
>  <Title>  (295) 
idAALIgen8

$$$$

     RDKit          2D

 41 47  0  0  0  0  0  0  0  0999 V2000
    0.8311   10.2038    0.0000 C   0  0  0  0  0  0  0  0  0  0  0  0
   -0.5392    9.5937    0.0000 C   0  0  0  0  0  0  0  0  0  0  0  0
   -1.7527   10.4753    0.0000 C   0  0  0  0  0  0  0  0  0  0  0  0
   -3.1230    9.8652    0.0000 C   0  0  0  0  0  0  0  0  0  0  0  0
   -3.2798    8.3735    0.0000 C   0  0  0  0  0  0  0  0  0  0  0  0
   -4.6502    7.7634    0.0000 C   0  0  0  0  0  0  0  0  0  0  0  0
   -5.9492    8.5134    0.0000 N   0  0  0  0  0  0  0  0  0  0  0  0
   -7.0639    7.5097    0.0000 N   0  0  0  0  0  0  0  0  0  0  0  0
   -6.4538    6.1393    0.0000 N   0  0  0  0  0  0  0  0  0  0  0  0
   -4.9620    6.2961    0.0000 N   0  0  0  0  0  0  0  0  0  0  0  0
   -3.9583    5.1814    0.0000 C   0  0  0  0  0  0  0  0  0  0  0  0
   -2.4911    5.4933    0.0000 C   0  0  0  0  0  0  0  0  0  0  0  0
   -1.4874    4.3786    0.0000 C   0  0  0  0  0  0  0  0  0  0  0  0
   -1.9509    2.9520    0.0000 C   0  0  0  0  0  0  0  0  0  0  0  0
   -3.4182    2.6401    0.0000 C   0  0  0  0  0  0  0  0  0  0  0  0
   -4.4218    3.7548    0.0000 C   0  0  0  0  0  0  0  0  0  0  0  0
   -5.8891    3.4430    0.0000 N   0  0  0  0  0  0  0  0  0  0  0  0
   -6.8928    4.5577    0.0000 N   0  0  0  0  0  0  0  0  0  0  0  0
   -8.3600    4.2458    0.0000 N   0  0  0  0  0  0  0  0  0  0  0  0
   -8.8235    2.8192    0.0000 N   0  0  0  0  0  0  0  0  0  0  0  0
   -7.8198    1.7045    0.0000 N   0  0  0  0  0  0  0  0  0  0  0  0
   -6.3526    2.0164    0.0000 N   0  0  0  0  0  0  0  0  0  0  0  0
   -5.3489    0.9017    0.0000 C   0  0  0  0  0  0  0  0  0  0  0  0
   -3.8571    1.0585    0.0000 C   0  0  0  0  0  0  0  0  0  0  0  0
   -3.2470   -0.3119    0.0000 C   0  0  0  0  0  0  0  0  0  0  0  0
   -4.3617   -1.3156    0.0000 C   0  0  0  0  0  0  0  0  0  0  0  0
   -4.2049   -2.8073    0.0000 C   0  0  0  0  0  0  0  0  0  0  0  0
   -2.9059   -3.5573    0.0000 N   0  0  0  0  0  0  0  0  0  0  0  0
   -3.2178   -5.0246    0.0000 N   0  0  0  0  0  0  0  0  0  0  0  0
   -4.7095   -5.1814    0.0000 N   0  0  0  0  0  0  0  0  0  0  0  0
   -5.3197   -3.8110    0.0000 N   0  0  0  0  0  0  0  0  0  0  0  0
   -6.7869   -3.4992    0.0000 C   0  0  0  0  0  0  0  0  0  0  0  0
   -7.2504   -2.0726    0.0000 C   0  0  0  0  0  0  0  0  0  0  0  0
   -8.7176   -1.7607    0.0000 C   0  0  0  0  0  0  0  0  0  0  0  0
   -9.7213   -2.8754    0.0000 C   0  0  0  0  0  0  0  0  0  0  0  0
   -9.2578   -4.3020    0.0000 N   0  0  0  0  0  0  0  0  0  0  0  0
   -7.7906   -4.6139    0.0000 C   0  0  0  0  0  0  0  0  0  0  0  0
   -5.6608   -0.5656    0.0000 C   0  0  0  0  0  0  0  0  0  0  0  0
   -7.0311   -1.1757    0.0000 O   0  0  0  0  0  0  0  0  0  0  0  0
   -2.0663    7.4918    0.0000 N   0  0  0  0  0  0  0  0  0  0  0  0
   -0.6960    8.1019    0.0000 N   0  0  0  0  0  0  0  0  0  0  0  0
  1  2  1  0
  2  3  2  0
  3  4  1  0
  4  5  2  0
  5  6  1  0
  6  7  2  0
  7  8  1  0
  8  9  2  0
  9 10  1  0
 10 11  1  0
 11 12  2  0
 12 13  1  0
 13 14  2  0
 14 15  1  0
 15 16  2  0
 16 17  1  0
 17 18  1  0
 18 19  2  0
 19 20  1  0
 20 21  2  0
 21 22  1  0
 22 23  1  0
 23 24  2  0
 24 25  1  0
 25 26  2  0
 26 27  1  0
 27 28  2  0
 28 29  1  0
 29 30  2  0
 30 31  1  0
 31 32  1  0
 32 33  2  0
 33 34  1  0
 34 35  2  0
 35 36  1  0
 36 37  2  0
 26 38  1  0
 38 39  2  0
  5 40  1  0
 40 41  2  0
 41  2  1  0
 10  6  1  0
 16 11  1  0
 22 17  1  0
 38 23  1  0
 31 27  1  0
 37 32  1  0
M  END
>  <Title>  (296) 
idAALJgen8

$$$$

     RDKit          2D

 44 49  0  0  0  0  0  0  0  0999 V2000
    3.0000    0.0000    0.0000 C   0  0  0  0  0  0  0  0  0  0  0  0
    1.5000    0.0000    0.0000 C   0  0  0  0  0  0  0  0  0  0  0  0
    0.7500   -1.2990    0.0000 C   0  0  0  0  0  0  0  0  0  0  0  0
   -0.7500   -1.2990    0.0000 C   0  0  0  0  0  0  0  0  0  0  0  0
   -1.5000    0.0000    0.0000 C   0  0  0  0  0  0  0  0  0  0  0  0
   -3.0000    0.0000    0.0000 C   0  0  0  0  0  0  0  0  0  0  0  0
   -3.8817   -1.2135    0.0000 N   0  0  0  0  0  0  0  0  0  0  0  0
   -5.3083   -0.7500    0.0000 N   0  0  0  0  0  0  0  0  0  0  0  0
   -5.3083    0.7500    0.0000 N   0  0  0  0  0  0  0  0  0  0  0  0
   -3.8817    1.2135    0.0000 N   0  0  0  0  0  0  0  0  0  0  0  0
   -3.4182    2.6401    0.0000 C   0  0  0  0  0  0  0  0  0  0  0  0
   -1.9509    2.9520    0.0000 C   0  0  0  0  0  0  0  0  0  0  0  0
   -1.4874    4.3786    0.0000 C   0  0  0  0  0  0  0  0  0  0  0  0
   -2.4911    5.4933    0.0000 C   0  0  0  0  0  0  0  0  0  0  0  0
   -2.0276    6.9199    0.0000 C   0  0  0  0  0  0  0  0  0  0  0  0
   -3.0313    8.0346    0.0000 O   0  0  0  0  0  0  0  0  0  0  0  0
   -0.5604    7.2317    0.0000 N   0  0  0  0  0  0  0  0  0  0  0  0
   -0.0968    8.6583    0.0000 C   0  0  0  0  0  0  0  0  0  0  0  0
   -0.9785    9.8718    0.0000 N   0  0  0  0  0  0  0  0  0  0  0  0
   -0.0968   11.0854    0.0000 N   0  0  0  0  0  0  0  0  0  0  0  0
    1.3298   10.6218    0.0000 N   0  0  0  0  0  0  0  0  0  0  0  0
    1.3298    9.1218    0.0000 N   0  0  0  0  0  0  0  0  0  0  0  0
    2.5433    8.2402    0.0000 C   0  0  0  0  0  0  0  0  0  0  0  0
    2.3865    6.7484    0.0000 C   0  0  0  0  0  0  0  0  0  0  0  0
    3.6000    5.8667    0.0000 C   0  0  0  0  0  0  0  0  0  0  0  0
    4.9703    6.4768    0.0000 C   0  0  0  0  0  0  0  0  0  0  0  0
    5.1271    7.9686    0.0000 C   0  0  0  0  0  0  0  0  0  0  0  0
    3.9136    8.8503    0.0000 C   0  0  0  0  0  0  0  0  0  0  0  0
   -3.9583    5.1814    0.0000 C   0  0  0  0  0  0  0  0  0  0  0  0
   -4.4218    3.7548    0.0000 C   0  0  0  0  0  0  0  0  0  0  0  0
   -5.8891    3.4430    0.0000 C   0  0  0  0  0  0  0  0  0  0  0  0
   -6.3526    2.0164    0.0000 C   0  0  0  0  0  0  0  0  0  0  0  0
   -7.8198    1.7045    0.0000 C   0  0  0  0  0  0  0  0  0  0  0  0
   -8.8235    2.8192    0.0000 C   0  0  0  0  0  0  0  0  0  0  0  0
  -10.2907    2.5074    0.0000 C   0  0  0  0  0  0  0  0  0  0  0  0
  -11.2944    3.6221    0.0000 O   0  0  0  0  0  0  0  0  0  0  0  0
  -10.7543    1.0808    0.0000 N   0  0  0  0  0  0  0  0  0  0  0  0
  -12.2215    0.7689    0.0000 O   0  0  0  0  0  0  0  0  0  0  0  0
   -8.3600    4.2458    0.0000 N   0  0  0  0  0  0  0  0  0  0  0  0
   -6.8928    4.5577    0.0000 C   0  0  0  0  0  0  0  0  0  0  0  0
   -6.4292    5.9843    0.0000 O   0  0  0  0  0  0  0  0  0  0  0  0
   -0.7500    1.2990    0.0000 N   0  0  0  0  0  0  0  0  0  0  0  0
    0.7500    1.2990    0.0000 C   0  0  0  0  0  0  0  0  0  0  0  0
    1.5000    2.5981    0.0000 O   0  0  0  0  0  0  0  0  0  0  0  0
  1  2  1  0
  2  3  2  0
  3  4  1  0
  4  5  2  0
  5  6  1  0
  6  7  2  0
  7  8  1  0
  8  9  2  0
  9 10  1  0
 10 11  1  0
 11 12  2  0
 12 13  1  0
 13 14  2  0
 14 15  1  0
 15 16  2  0
 15 17  1  0
 17 18  1  0
 18 19  2  0
 19 20  1  0
 20 21  2  0
 21 22  1  0
 22 23  1  0
 23 24  2  0
 24 25  1  0
 25 26  2  0
 26 27  1  0
 27 28  2  0
 14 29  1  0
 29 30  2  0
 30 31  1  0
 31 32  2  0
 32 33  1  0
 33 34  2  0
 34 35  1  0
 35 36  2  0
 35 37  1  0
 37 38  1  0
 34 39  1  0
 39 40  1  0
 40 41  2  0
  5 42  1  0
 42 43  1  0
 43 44  2  0
 43  2  1  0
 10  6  1  0
 30 11  1  0
 40 31  1  0
 22 18  1  0
 28 23  1  0
M  END
>  <Title>  (297) 
idAALKgen8

$$$$

     RDKit          2D

 35 39  0  0  0  0  0  0  0  0999 V2000
    3.0000    0.0000    0.0000 C   0  0  0  0  0  0  0  0  0  0  0  0
    1.5000    0.0000    0.0000 C   0  0  0  0  0  0  0  0  0  0  0  0
    0.7500   -1.2990    0.0000 C   0  0  0  0  0  0  0  0  0  0  0  0
   -0.7500   -1.2990    0.0000 C   0  0  0  0  0  0  0  0  0  0  0  0
   -1.5000    0.0000    0.0000 C   0  0  0  0  0  0  0  0  0  0  0  0
   -3.0000    0.0000    0.0000 C   0  0  0  0  0  0  0  0  0  0  0  0
   -3.7500   -1.2990    0.0000 O   0  0  0  0  0  0  0  0  0  0  0  0
   -3.7500    1.2990    0.0000 N   0  0  0  0  0  0  0  0  0  0  0  0
   -5.2500    1.2990    0.0000 C   0  0  0  0  0  0  0  0  0  0  0  0
   -6.1317    0.0855    0.0000 N   0  0  0  0  0  0  0  0  0  0  0  0
   -7.5583    0.5490    0.0000 N   0  0  0  0  0  0  0  0  0  0  0  0
   -7.5583    2.0490    0.0000 N   0  0  0  0  0  0  0  0  0  0  0  0
   -6.1317    2.5126    0.0000 N   0  0  0  0  0  0  0  0  0  0  0  0
   -5.6682    3.9391    0.0000 C   0  0  0  0  0  0  0  0  0  0  0  0
   -4.2009    4.2510    0.0000 C   0  0  0  0  0  0  0  0  0  0  0  0
   -3.7374    5.6776    0.0000 C   0  0  0  0  0  0  0  0  0  0  0  0
   -4.7411    6.7923    0.0000 C   0  0  0  0  0  0  0  0  0  0  0  0
   -4.2776    8.2189    0.0000 N   0  0  0  0  0  0  0  0  0  0  0  0
   -2.8104    8.5308    0.0000 C   0  0  0  0  0  0  0  0  0  0  0  0
   -1.8067    7.4161    0.0000 O   0  0  0  0  0  0  0  0  0  0  0  0
   -2.3468    9.9574    0.0000 C   0  0  0  0  0  0  0  0  0  0  0  0
   -3.2285   11.1709    0.0000 N   0  0  0  0  0  0  0  0  0  0  0  0
   -2.3468   12.3844    0.0000 N   0  0  0  0  0  0  0  0  0  0  0  0
   -0.9202   11.9209    0.0000 N   0  0  0  0  0  0  0  0  0  0  0  0
   -0.9202   10.4209    0.0000 N   0  0  0  0  0  0  0  0  0  0  0  0
    0.2933    9.5392    0.0000 C   0  0  0  0  0  0  0  0  0  0  0  0
    0.1365    8.0474    0.0000 C   0  0  0  0  0  0  0  0  0  0  0  0
    1.3500    7.1657    0.0000 C   0  0  0  0  0  0  0  0  0  0  0  0
    2.7203    7.7758    0.0000 C   0  0  0  0  0  0  0  0  0  0  0  0
    2.8771    9.2676    0.0000 C   0  0  0  0  0  0  0  0  0  0  0  0
    1.6636   10.1493    0.0000 C   0  0  0  0  0  0  0  0  0  0  0  0
   -6.2083    6.4805    0.0000 C   0  0  0  0  0  0  0  0  0  0  0  0
   -6.6718    5.0539    0.0000 C   0  0  0  0  0  0  0  0  0  0  0  0
   -0.7500    1.2990    0.0000 C   0  0  0  0  0  0  0  0  0  0  0  0
    0.7500    1.2990    0.0000 C   0  0  0  0  0  0  0  0  0  0  0  0
  1  2  1  0
  2  3  2  0
  3  4  1  0
  4  5  2  0
  5  6  1  0
  6  7  2  0
  6  8  1  0
  8  9  1  0
  9 10  2  0
 10 11  1  0
 11 12  2  0
 12 13  1  0
 13 14  1  0
 14 15  2  0
 15 16  1  0
 16 17  2  0
 17 18  1  0
 18 19  1  0
 19 20  2  0
 19 21  1  0
 21 22  2  0
 22 23  1  0
 23 24  2  0
 24 25  1  0
 25 26  1  0
 26 27  2  0
 27 28  1  0
 28 29  2  0
 29 30  1  0
 30 31  2  0
 17 32  1  0
 32 33  2  0
  5 34  1  0
 34 35  2  0
 35  2  1  0
 13  9  1  0
 33 14  1  0
 25 21  1  0
 31 26  1  0
M  END
>  <Title>  (298) 
idAALLgen8

$$$$

     RDKit          2D

 29 30  0  0  0  0  0  0  0  0999 V2000
    2.7760    0.0000    0.0000 C   0  0  0  0  0  0  0  0  0  0  0  0
    1.2760    0.0000    0.0000 C   0  0  0  0  0  0  0  0  0  0  0  0
    0.3943    1.2135    0.0000 C   0  0  0  0  0  0  0  0  0  0  0  0
   -1.0323    0.7500    0.0000 C   0  0  0  0  0  0  0  0  0  0  0  0
   -1.4370    2.1944    0.0000 C   0  0  0  0  0  0  0  0  0  0  0  0
   -2.2164    3.4760    0.0000 C   0  0  0  0  0  0  0  0  0  0  0  0
   -3.3126    4.4998    0.0000 C   0  0  0  0  0  0  0  0  0  0  0  0
   -4.6444    5.1899    0.0000 C   0  0  0  0  0  0  0  0  0  0  0  0
   -6.1131    5.4951    0.0000 C   0  0  0  0  0  0  0  0  0  0  0  0
   -7.6096    5.3928    0.0000 C   0  0  0  0  0  0  0  0  0  0  0  0
   -9.0230    4.8904    0.0000 C   0  0  0  0  0  0  0  0  0  0  0  0
  -10.2484    4.0254    0.0000 C   0  0  0  0  0  0  0  0  0  0  0  0
  -11.1950    2.8618    0.0000 C   0  0  0  0  0  0  0  0  0  0  0  0
  -11.7926    1.4860    0.0000 C   0  0  0  0  0  0  0  0  0  0  0  0
  -11.9969   -0.0000    0.0000 C   0  0  0  0  0  0  0  0  0  0  0  0
  -11.7926   -1.4860    0.0000 C   0  0  0  0  0  0  0  0  0  0  0  0
  -11.1950   -2.8618    0.0000 C   0  0  0  0  0  0  0  0  0  0  0  0
  -10.2484   -4.0254    0.0000 C   0  0  0  0  0  0  0  0  0  0  0  0
   -9.0230   -4.8904    0.0000 C   0  0  0  0  0  0  0  0  0  0  0  0
   -7.6096   -5.3928    0.0000 C   0  0  0  0  0  0  0  0  0  0  0  0
   -6.1131   -5.4951    0.0000 C   0  0  0  0  0  0  0  0  0  0  0  0
   -4.6444   -5.1899    0.0000 C   0  0  0  0  0  0  0  0  0  0  0  0
   -3.3126   -4.4998    0.0000 C   0  0  0  0  0  0  0  0  0  0  0  0
   -2.4476   -5.7253    0.0000 C   0  0  0  0  0  0  0  0  0  0  0  0
   -2.2164   -3.4760    0.0000 C   0  0  0  0  0  0  0  0  0  0  0  0
   -1.0528   -4.4226    0.0000 O   0  0  0  0  0  0  0  0  0  0  0  0
   -1.4370   -2.1944    0.0000 C   0  0  0  0  0  0  0  0  0  0  0  0
   -1.0323   -0.7500    0.0000 C   0  0  0  0  0  0  0  0  0  0  0  0
    0.3943   -1.2135    0.0000 C   0  0  0  0  0  0  0  0  0  0  0  0
  1  2  1  0
  2  3  2  0
  3  4  1  0
  4  5  2  0
  5  6  1  0
  6  7  2  0
  7  8  1  0
  8  9  2  0
  9 10  1  0
 10 11  2  0
 11 12  1  0
 12 13  2  0
 13 14  1  0
 14 15  2  0
 15 16  1  0
 16 17  2  0
 17 18  1  0
 18 19  2  0
 19 20  1  0
 20 21  2  0
 21 22  1  0
 22 23  2  0
 23 24  1  0
 23 25  1  0
 25 26  1  0
 25 27  2  0
 27 28  1  0
 28 29  2  0
 29  2  1  0
 28  4  1  0
M  END
>  <Title>  (299) 
idAALMgen8

$$$$

     RDKit          2D

 56 63  0  0  0  0  0  0  0  0999 V2000
    3.0000    0.0000    0.0000 C   0  0  0  0  0  0  0  0  0  0  0  0
    1.5000    0.0000    0.0000 C   0  0  0  0  0  0  0  0  0  0  0  0
    0.7500   -1.2990    0.0000 C   0  0  0  0  0  0  0  0  0  0  0  0
   -0.7500   -1.2990    0.0000 C   0  0  0  0  0  0  0  0  0  0  0  0
   -1.5000    0.0000    0.0000 C   0  0  0  0  0  0  0  0  0  0  0  0
   -3.0000    0.0000    0.0000 C   0  0  0  0  0  0  0  0  0  0  0  0
   -3.7500   -1.2990    0.0000 O   0  0  0  0  0  0  0  0  0  0  0  0
   -3.7500    1.2990    0.0000 N   0  0  0  0  0  0  0  0  0  0  0  0
   -5.2500    1.2990    0.0000 C   0  0  0  0  0  0  0  0  0  0  0  0
   -6.1317    0.0855    0.0000 N   0  0  0  0  0  0  0  0  0  0  0  0
   -7.5583    0.5490    0.0000 N   0  0  0  0  0  0  0  0  0  0  0  0
   -7.5583    2.0490    0.0000 N   0  0  0  0  0  0  0  0  0  0  0  0
   -6.1317    2.5126    0.0000 N   0  0  0  0  0  0  0  0  0  0  0  0
   -5.6682    3.9391    0.0000 C   0  0  0  0  0  0  0  0  0  0  0  0
   -4.2009    4.2510    0.0000 C   0  0  0  0  0  0  0  0  0  0  0  0
   -3.7374    5.6776    0.0000 C   0  0  0  0  0  0  0  0  0  0  0  0
   -4.7411    6.7923    0.0000 C   0  0  0  0  0  0  0  0  0  0  0  0
   -4.2776    8.2189    0.0000 C   0  0  0  0  0  0  0  0  0  0  0  0
   -5.2813    9.3336    0.0000 O   0  0  0  0  0  0  0  0  0  0  0  0
   -2.8104    8.5308    0.0000 N   0  0  0  0  0  0  0  0  0  0  0  0
   -2.3468    9.9574    0.0000 O   0  0  0  0  0  0  0  0  0  0  0  0
   -6.2083    6.4805    0.0000 N   0  0  0  0  0  0  0  0  0  0  0  0
   -6.6718    5.0539    0.0000 C   0  0  0  0  0  0  0  0  0  0  0  0
   -8.1391    4.7420    0.0000 C   0  0  0  0  0  0  0  0  0  0  0  0
   -8.7492    3.3717    0.0000 N   0  0  0  0  0  0  0  0  0  0  0  0
  -10.2410    3.5285    0.0000 N   0  0  0  0  0  0  0  0  0  0  0  0
  -10.5528    4.9957    0.0000 N   0  0  0  0  0  0  0  0  0  0  0  0
   -9.2538    5.7457    0.0000 N   0  0  0  0  0  0  0  0  0  0  0  0
   -9.0970    7.2375    0.0000 C   0  0  0  0  0  0  0  0  0  0  0  0
   -7.7267    7.8476    0.0000 C   0  0  0  0  0  0  0  0  0  0  0  0
   -7.5699    9.3394    0.0000 C   0  0  0  0  0  0  0  0  0  0  0  0
   -8.7834   10.2210    0.0000 C   0  0  0  0  0  0  0  0  0  0  0  0
   -8.6266   11.7128    0.0000 C   0  0  0  0  0  0  0  0  0  0  0  0
   -9.8401   12.5945    0.0000 O   0  0  0  0  0  0  0  0  0  0  0  0
   -7.2563   12.3229    0.0000 N   0  0  0  0  0  0  0  0  0  0  0  0
   -7.0995   13.8147    0.0000 C   0  0  0  0  0  0  0  0  0  0  0  0
   -8.2142   14.8184    0.0000 N   0  0  0  0  0  0  0  0  0  0  0  0
   -7.6041   16.1887    0.0000 N   0  0  0  0  0  0  0  0  0  0  0  0
   -6.1123   16.0319    0.0000 N   0  0  0  0  0  0  0  0  0  0  0  0
   -5.8005   14.5647    0.0000 N   0  0  0  0  0  0  0  0  0  0  0  0
   -4.4301   13.9546    0.0000 C   0  0  0  0  0  0  0  0  0  0  0  0
   -4.2734   12.4628    0.0000 C   0  0  0  0  0  0  0  0  0  0  0  0
   -2.9030   11.8527    0.0000 C   0  0  0  0  0  0  0  0  0  0  0  0
   -1.6895   12.7344    0.0000 C   0  0  0  0  0  0  0  0  0  0  0  0
   -1.8463   14.2262    0.0000 C   0  0  0  0  0  0  0  0  0  0  0  0
   -3.2166   14.8363    0.0000 C   0  0  0  0  0  0  0  0  0  0  0  0
   -3.3734   16.3281    0.0000 C   0  0  0  0  0  0  0  0  0  0  0  0
   -2.1599   17.2097    0.0000 C   0  0  0  0  0  0  0  0  0  0  0  0
   -2.3167   18.7015    0.0000 C   0  0  0  0  0  0  0  0  0  0  0  0
   -3.6870   19.3116    0.0000 C   0  0  0  0  0  0  0  0  0  0  0  0
   -4.9005   18.4300    0.0000 C   0  0  0  0  0  0  0  0  0  0  0  0
   -4.7437   16.9382    0.0000 C   0  0  0  0  0  0  0  0  0  0  0  0
  -10.1537    9.6109    0.0000 C   0  0  0  0  0  0  0  0  0  0  0  0
  -10.3105    8.1192    0.0000 C   0  0  0  0  0  0  0  0  0  0  0  0
   -0.7500    1.2990    0.0000 C   0  0  0  0  0  0  0  0  0  0  0  0
    0.7500    1.2990    0.0000 C   0  0  0  0  0  0  0  0  0  0  0  0
  1  2  1  0
  2  3  2  0
  3  4  1  0
  4  5  2  0
  5  6  1  0
  6  7  2  0
  6  8  1  0
  8  9  1  0
  9 10  2  0
 10 11  1  0
 11 12  2  0
 12 13  1  0
 13 14  1  0
 14 15  2  0
 15 16  1  0
 16 17  2  0
 17 18  1  0
 18 19  2  0
 18 20  1  0
 20 21  1  0
 17 22  1  0
 22 23  1  0
 23 24  1  0
 24 25  2  0
 25 26  1  0
 26 27  2  0
 27 28  1  0
 28 29  1  0
 29 30  2  0
 30 31  1  0
 31 32  2  0
 32 33  1  0
 33 34  2  0
 33 35  1  0
 35 36  1  0
 36 37  2  0
 37 38  1  0
 38 39  2  0
 39 40  1  0
 40 41  1  0
 41 42  2  0
 42 43  1  0
 43 44  2  0
 44 45  1  0
 45 46  2  0
 46 47  1  0
 47 48  2  0
 48 49  1  0
 49 50  2  0
 50 51  1  0
 51 52  2  0
 32 53  1  0
 53 54  2  0
  5 55  1  0
 55 56  2  0
 56  2  1  0
 13  9  1  0
 23 14  1  0
 28 24  1  0
 54 29  1  0
 40 36  1  0
 46 41  1  0
 52 47  1  0
M  END
>  <Title>  (300) 
idAALNgen8

$$$$

     RDKit          2D

 35 39  0  0  0  0  0  0  0  0999 V2000
    3.0000   -5.1962    0.0000 O   0  0  0  0  0  0  0  0  0  0  0  0
    1.5000   -5.1962    0.0000 C   0  0  0  0  0  0  0  0  0  0  0  0
    0.7500   -3.8971    0.0000 N   0  0  0  0  0  0  0  0  0  0  0  0
    1.5000   -2.5981    0.0000 C   0  0  0  0  0  0  0  0  0  0  0  0
    0.7500   -1.2990    0.0000 C   0  0  0  0  0  0  0  0  0  0  0  0
    1.5000    0.0000    0.0000 C   0  0  0  0  0  0  0  0  0  0  0  0
    0.7500    1.2990    0.0000 C   0  0  0  0  0  0  0  0  0  0  0  0
   -0.7500    1.2990    0.0000 C   0  0  0  0  0  0  0  0  0  0  0  0
   -1.5000    2.5981    0.0000 N   0  0  0  0  0  0  0  0  0  0  0  0
   -2.9918    2.7549    0.0000 N   0  0  0  0  0  0  0  0  0  0  0  0
   -3.3037    4.2221    0.0000 N   0  0  0  0  0  0  0  0  0  0  0  0
   -2.0046    4.9721    0.0000 N   0  0  0  0  0  0  0  0  0  0  0  0
   -0.8899    3.9684    0.0000 C   0  0  0  0  0  0  0  0  0  0  0  0
    0.5773    4.2803    0.0000 C   0  0  0  0  0  0  0  0  0  0  0  0
    1.5810    3.1655    0.0000 C   0  0  0  0  0  0  0  0  0  0  0  0
    3.0482    3.4774    0.0000 C   0  0  0  0  0  0  0  0  0  0  0  0
    3.5118    4.9040    0.0000 C   0  0  0  0  0  0  0  0  0  0  0  0
    4.9790    5.2159    0.0000 C   0  0  0  0  0  0  0  0  0  0  0  0
    5.9827    4.1011    0.0000 O   0  0  0  0  0  0  0  0  0  0  0  0
    2.5081    6.0187    0.0000 C   0  0  0  0  0  0  0  0  0  0  0  0
    1.0409    5.7068    0.0000 C   0  0  0  0  0  0  0  0  0  0  0  0
   -1.5000    0.0000    0.0000 C   0  0  0  0  0  0  0  0  0  0  0  0
   -3.0000    0.0000    0.0000 C   0  0  0  0  0  0  0  0  0  0  0  0
   -3.7500    1.2990    0.0000 C   0  0  0  0  0  0  0  0  0  0  0  0
   -5.2500    1.2990    0.0000 C   0  0  0  0  0  0  0  0  0  0  0  0
   -6.0000    0.0000    0.0000 C   0  0  0  0  0  0  0  0  0  0  0  0
   -5.2500   -1.2990    0.0000 C   0  0  0  0  0  0  0  0  0  0  0  0
   -3.7500   -1.2990    0.0000 C   0  0  0  0  0  0  0  0  0  0  0  0
   -0.7500   -1.2990    0.0000 C   0  0  0  0  0  0  0  0  0  0  0  0
    0.7500   -6.4952    0.0000 C   0  0  0  0  0  0  0  0  0  0  0  0
   -0.7500   -6.4952    0.0000 C   0  0  0  0  0  0  0  0  0  0  0  0
   -1.5000   -7.7942    0.0000 C   0  0  0  0  0  0  0  0  0  0  0  0
   -0.7500   -9.0933    0.0000 C   0  0  0  0  0  0  0  0  0  0  0  0
    0.7500   -9.0933    0.0000 C   0  0  0  0  0  0  0  0  0  0  0  0
    1.5000   -7.7942    0.0000 C   0  0  0  0  0  0  0  0  0  0  0  0
  1  2  2  0
  2  3  1  0
  3  4  1  0
  4  5  1  0
  5  6  2  0
  6  7  1  0
  7  8  2  0
  8  9  1  0
  9 10  1  0
 10 11  2  0
 11 12  1  0
 12 13  2  0
 13 14  1  0
 14 15  2  0
 15 16  1  0
 16 17  2  0
 17 18  1  0
 18 19  1  0
 17 20  1  0
 20 21  2  0
  8 22  1  0
 22 23  1  0
 23 24  2  0
 24 25  1  0
 25 26  2  0
 26 27  1  0
 27 28  2  0
 22 29  2  0
  2 30  1  0
 30 31  2  0
 31 32  1  0
 32 33  2  0
 33 34  1  0
 34 35  2  0
 29  5  1  0
 35 30  1  0
 13  9  1  0
 21 14  1  0
 28 23  1  0
M  END
>  <Title>  (301) 
idAALOgen8

$$$$

     RDKit          2D

 49 49  0  0  0  0  0  0  0  0999 V2000
   12.9673    0.0000    0.0000 C   0  0  0  0  0  0  0  0  0  0  0  0
   11.4673    0.0000    0.0000 C   0  0  0  0  0  0  0  0  0  0  0  0
   11.3692   -1.4968    0.0000 C   0  0  0  0  0  0  0  0  0  0  0  0
   11.0766   -2.9680    0.0000 C   0  0  0  0  0  0  0  0  0  0  0  0
   10.5944   -4.3884    0.0000 C   0  0  0  0  0  0  0  0  0  0  0  0
    9.9310   -5.7337    0.0000 C   0  0  0  0  0  0  0  0  0  0  0  0
    9.0977   -6.9809    0.0000 C   0  0  0  0  0  0  0  0  0  0  0  0
    8.1086   -8.1086    0.0000 C   0  0  0  0  0  0  0  0  0  0  0  0
    6.9809   -9.0977    0.0000 C   0  0  0  0  0  0  0  0  0  0  0  0
    5.7337   -9.9310    0.0000 C   0  0  0  0  0  0  0  0  0  0  0  0
    4.3884  -10.5944    0.0000 C   0  0  0  0  0  0  0  0  0  0  0  0
    2.9680  -11.0766    0.0000 C   0  0  0  0  0  0  0  0  0  0  0  0
    1.4968  -11.3692    0.0000 C   0  0  0  0  0  0  0  0  0  0  0  0
   -0.0000  -11.4673    0.0000 C   0  0  0  0  0  0  0  0  0  0  0  0
   -1.4968  -11.3692    0.0000 C   0  0  0  0  0  0  0  0  0  0  0  0
   -2.9680  -11.0766    0.0000 C   0  0  0  0  0  0  0  0  0  0  0  0
   -4.3884  -10.5944    0.0000 C   0  0  0  0  0  0  0  0  0  0  0  0
   -5.7337   -9.9310    0.0000 C   0  0  0  0  0  0  0  0  0  0  0  0
   -6.9809   -9.0977    0.0000 C   0  0  0  0  0  0  0  0  0  0  0  0
   -8.1086   -8.1086    0.0000 C   0  0  0  0  0  0  0  0  0  0  0  0
   -9.0977   -6.9809    0.0000 C   0  0  0  0  0  0  0  0  0  0  0  0
   -9.9310   -5.7337    0.0000 C   0  0  0  0  0  0  0  0  0  0  0  0
  -10.5944   -4.3884    0.0000 C   0  0  0  0  0  0  0  0  0  0  0  0
  -11.0766   -2.9680    0.0000 C   0  0  0  0  0  0  0  0  0  0  0  0
  -11.3692   -1.4968    0.0000 C   0  0  0  0  0  0  0  0  0  0  0  0
  -11.4673    0.0000    0.0000 C   0  0  0  0  0  0  0  0  0  0  0  0
  -11.3692    1.4968    0.0000 C   0  0  0  0  0  0  0  0  0  0  0  0
  -11.0766    2.9680    0.0000 C   0  0  0  0  0  0  0  0  0  0  0  0
  -10.5944    4.3884    0.0000 C   0  0  0  0  0  0  0  0  0  0  0  0
   -9.9310    5.7337    0.0000 C   0  0  0  0  0  0  0  0  0  0  0  0
   -9.0977    6.9809    0.0000 C   0  0  0  0  0  0  0  0  0  0  0  0
   -8.1086    8.1086    0.0000 C   0  0  0  0  0  0  0  0  0  0  0  0
   -6.9809    9.0977    0.0000 C   0  0  0  0  0  0  0  0  0  0  0  0
   -5.7337    9.9310    0.0000 C   0  0  0  0  0  0  0  0  0  0  0  0
   -4.3884   10.5944    0.0000 C   0  0  0  0  0  0  0  0  0  0  0  0
   -2.9680   11.0766    0.0000 C   0  0  0  0  0  0  0  0  0  0  0  0
   -1.4968   11.3692    0.0000 C   0  0  0  0  0  0  0  0  0  0  0  0
    0.0000   11.4673    0.0000 C   0  0  0  0  0  0  0  0  0  0  0  0
    1.4968   11.3692    0.0000 C   0  0  0  0  0  0  0  0  0  0  0  0
    2.9680   11.0766    0.0000 C   0  0  0  0  0  0  0  0  0  0  0  0
    4.3884   10.5944    0.0000 C   0  0  0  0  0  0  0  0  0  0  0  0
    5.7337    9.9310    0.0000 C   0  0  0  0  0  0  0  0  0  0  0  0
    6.9809    9.0977    0.0000 C   0  0  0  0  0  0  0  0  0  0  0  0
    8.1086    8.1086    0.0000 C   0  0  0  0  0  0  0  0  0  0  0  0
    9.0977    6.9809    0.0000 C   0  0  0  0  0  0  0  0  0  0  0  0
    9.9310    5.7337    0.0000 C   0  0  0  0  0  0  0  0  0  0  0  0
   10.5944    4.3884    0.0000 C   0  0  0  0  0  0  0  0  0  0  0  0
   11.0766    2.9680    0.0000 C   0  0  0  0  0  0  0  0  0  0  0  0
   11.3692    1.4968    0.0000 C   0  0  0  0  0  0  0  0  0  0  0  0
  1  2  1  0
  2  3  2  0
  3  4  1  0
  4  5  2  0
  5  6  1  0
  6  7  2  0
  7  8  1  0
  8  9  2  0
  9 10  1  0
 10 11  2  0
 11 12  1  0
 12 13  2  0
 13 14  1  0
 14 15  2  0
 15 16  1  0
 16 17  2  0
 17 18  1  0
 18 19  2  0
 19 20  1  0
 20 21  2  0
 21 22  1  0
 22 23  2  0
 23 24  1  0
 24 25  2  0
 25 26  1  0
 26 27  2  0
 27 28  1  0
 28 29  2  0
 29 30  1  0
 30 31  2  0
 31 32  1  0
 32 33  2  0
 33 34  1  0
 34 35  2  0
 35 36  1  0
 36 37  2  0
 37 38  1  0
 38 39  2  0
 39 40  1  0
 40 41  2  0
 41 42  1  0
 42 43  2  0
 43 44  1  0
 44 45  2  0
 45 46  1  0
 46 47  2  0
 47 48  1  0
 48 49  2  0
 49  2  1  0
M  END
>  <Title>  (302) 
idAALPgen8

$$$$

     RDKit          2D

 14 15  0  0  0  0  0  0  0  0999 V2000
    3.7500   -1.2990    0.0000 O   0  0  0  0  0  0  0  0  0  0  0  0
    3.0000    0.0000    0.0000 C   0  0  0  0  0  0  0  0  0  0  0  0
    1.5000    0.0000    0.0000 C   0  0  0  0  0  0  0  0  0  0  0  0
    0.7500   -1.2990    0.0000 C   0  0  0  0  0  0  0  0  0  0  0  0
   -0.7500   -1.2990    0.0000 C   0  0  0  0  0  0  0  0  0  0  0  0
   -1.5000    0.0000    0.0000 C   0  0  0  0  0  0  0  0  0  0  0  0
   -0.7500    1.2990    0.0000 C   0  0  0  0  0  0  0  0  0  0  0  0
    0.7500    1.2990    0.0000 C   0  0  0  0  0  0  0  0  0  0  0  0
    1.5000    2.5981    0.0000 C   0  0  0  0  0  0  0  0  0  0  0  0
    3.0000    2.5981    0.0000 C   0  0  0  0  0  0  0  0  0  0  0  0
    3.7500    3.8971    0.0000 C   0  0  0  0  0  0  0  0  0  0  0  0
    3.0000    5.1962    0.0000 C   0  0  0  0  0  0  0  0  0  0  0  0
    1.5000    5.1962    0.0000 C   0  0  0  0  0  0  0  0  0  0  0  0
    0.7500    3.8971    0.0000 C   0  0  0  0  0  0  0  0  0  0  0  0
  1  2  1  0
  2  3  1  0
  3  4  2  0
  4  5  1  0
  5  6  2  0
  6  7  1  0
  7  8  2  0
  8  9  1  0
  9 10  2  0
 10 11  1  0
 11 12  2  0
 12 13  1  0
 13 14  2  0
  8  3  1  0
 14  9  1  0
M  END
>  <Title>  (303) 
idAALQgen8

$$$$

     RDKit          2D

 18 18  0  0  0  0  0  0  0  0999 V2000
    6.0944   -1.2990    0.0000 C   0  0  0  0  0  0  0  0  0  0  0  0
    5.3444    0.0000    0.0000 O   0  0  0  0  0  0  0  0  0  0  0  0
    3.8444    0.0000    0.0000 C   0  0  0  0  0  0  0  0  0  0  0  0
    3.5517   -1.4712    0.0000 C   0  0  0  0  0  0  0  0  0  0  0  0
    2.7184   -2.7184    0.0000 C   0  0  0  0  0  0  0  0  0  0  0  0
    1.4712   -3.5517    0.0000 C   0  0  0  0  0  0  0  0  0  0  0  0
   -0.0000   -3.8444    0.0000 C   0  0  0  0  0  0  0  0  0  0  0  0
   -1.4712   -3.5517    0.0000 C   0  0  0  0  0  0  0  0  0  0  0  0
   -2.7184   -2.7184    0.0000 C   0  0  0  0  0  0  0  0  0  0  0  0
   -3.5517   -1.4712    0.0000 C   0  0  0  0  0  0  0  0  0  0  0  0
   -3.8444    0.0000    0.0000 C   0  0  0  0  0  0  0  0  0  0  0  0
   -3.5517    1.4712    0.0000 C   0  0  0  0  0  0  0  0  0  0  0  0
   -2.7184    2.7184    0.0000 C   0  0  0  0  0  0  0  0  0  0  0  0
   -1.4712    3.5517    0.0000 C   0  0  0  0  0  0  0  0  0  0  0  0
    0.0000    3.8444    0.0000 C   0  0  0  0  0  0  0  0  0  0  0  0
    1.4712    3.5517    0.0000 C   0  0  0  0  0  0  0  0  0  0  0  0
    2.7184    2.7184    0.0000 C   0  0  0  0  0  0  0  0  0  0  0  0
    3.5517    1.4712    0.0000 N   0  0  0  0  0  0  0  0  0  0  0  0
  1  2  1  0
  2  3  1  0
  3  4  2  0
  4  5  1  0
  5  6  2  0
  6  7  1  0
  7  8  2  0
  8  9  1  0
  9 10  2  0
 10 11  1  0
 11 12  2  0
 12 13  1  0
 13 14  2  0
 14 15  1  0
 15 16  2  0
 16 17  1  0
 17 18  1  0
 18  3  1  0
M  END
>  <Title>  (304) 
idAALRgen8

$$$$

     RDKit          2D

  8  8  0  0  0  0  0  0  0  0999 V2000
    3.7500   -1.2990    0.0000 C   0  0  0  0  0  0  0  0  0  0  0  0
    3.0000    0.0000    0.0000 O   0  0  0  0  0  0  0  0  0  0  0  0
    1.5000    0.0000    0.0000 N   0  0  0  0  0  0  0  0  0  0  0  0
    0.7500   -1.2990    0.0000 C   0  0  0  0  0  0  0  0  0  0  0  0
   -0.7500   -1.2990    0.0000 C   0  0  0  0  0  0  0  0  0  0  0  0
   -1.5000    0.0000    0.0000 C   0  0  0  0  0  0  0  0  0  0  0  0
   -0.7500    1.2990    0.0000 C   0  0  0  0  0  0  0  0  0  0  0  0
    0.7500    1.2990    0.0000 C   0  0  0  0  0  0  0  0  0  0  0  0
  1  2  1  0
  2  3  1  0
  3  4  1  0
  4  5  1  0
  5  6  1  0
  6  7  1  0
  7  8  1  0
  8  3  1  0
M  END
>  <Title>  (305) 
idAALSgen8

$$$$

     RDKit          2D

 22 24  0  0  0  0  0  0  0  0999 V2000
    3.0000    0.0000    0.0000 C   0  0  0  0  0  0  0  0  0  0  0  0
    1.5000    0.0000    0.0000 C   0  0  0  0  0  0  0  0  0  0  0  0
    0.7500   -1.2990    0.0000 C   0  0  0  0  0  0  0  0  0  0  0  0
   -0.7500   -1.2990    0.0000 C   0  0  0  0  0  0  0  0  0  0  0  0
   -1.5000    0.0000    0.0000 C   0  0  0  0  0  0  0  0  0  0  0  0
   -3.0000    0.0000    0.0000 C   0  0  0  0  0  0  0  0  0  0  0  0
   -3.8817   -1.2135    0.0000 N   0  0  0  0  0  0  0  0  0  0  0  0
   -5.3083   -0.7500    0.0000 N   0  0  0  0  0  0  0  0  0  0  0  0
   -5.3083    0.7500    0.0000 N   0  0  0  0  0  0  0  0  0  0  0  0
   -3.8817    1.2135    0.0000 N   0  0  0  0  0  0  0  0  0  0  0  0
   -3.4182    2.6401    0.0000 C   0  0  0  0  0  0  0  0  0  0  0  0
   -1.9509    2.9520    0.0000 C   0  0  0  0  0  0  0  0  0  0  0  0
   -1.4874    4.3786    0.0000 C   0  0  0  0  0  0  0  0  0  0  0  0
   -2.4911    5.4933    0.0000 C   0  0  0  0  0  0  0  0  0  0  0  0
   -2.0276    6.9199    0.0000 C   0  0  0  0  0  0  0  0  0  0  0  0
   -3.0313    8.0346    0.0000 O   0  0  0  0  0  0  0  0  0  0  0  0
   -0.5604    7.2317    0.0000 N   0  0  0  0  0  0  0  0  0  0  0  0
   -0.0968    8.6583    0.0000 O   0  0  0  0  0  0  0  0  0  0  0  0
   -3.9583    5.1814    0.0000 C   0  0  0  0  0  0  0  0  0  0  0  0
   -4.4218    3.7548    0.0000 C   0  0  0  0  0  0  0  0  0  0  0  0
   -0.7500    1.2990    0.0000 C   0  0  0  0  0  0  0  0  0  0  0  0
    0.7500    1.2990    0.0000 C   0  0  0  0  0  0  0  0  0  0  0  0
  1  2  1  0
  2  3  2  0
  3  4  1  0
  4  5  2  0
  5  6  1  0
  6  7  2  0
  7  8  1  0
  8  9  2  0
  9 10  1  0
 10 11  1  0
 11 12  2  0
 12 13  1  0
 13 14  2  0
 14 15  1  0
 15 16  2  0
 15 17  1  0
 17 18  1  0
 14 19  1  0
 19 20  1  0
  5 21  1  0
 21 22  2  0
 22  2  1  0
 10  6  1  0
 20 11  1  0
M  END
>  <Title>  (306) 
idAALTgen8

$$$$

     RDKit          2D

 42 48  0  0  0  0  0  0  0  0999 V2000
    3.7500    1.2990    0.0000 C   0  0  0  0  0  0  0  0  0  0  0  0
    3.0000    0.0000    0.0000 O   0  0  0  0  0  0  0  0  0  0  0  0
    1.5000    0.0000    0.0000 C   0  0  0  0  0  0  0  0  0  0  0  0
    0.7500    1.2990    0.0000 C   0  0  0  0  0  0  0  0  0  0  0  0
   -0.7500    1.2990    0.0000 C   0  0  0  0  0  0  0  0  0  0  0  0
   -1.5000    0.0000    0.0000 C   0  0  0  0  0  0  0  0  0  0  0  0
   -3.0000    0.0000    0.0000 C   0  0  0  0  0  0  0  0  0  0  0  0
   -3.8817   -1.2135    0.0000 N   0  0  0  0  0  0  0  0  0  0  0  0
   -5.3083   -0.7500    0.0000 N   0  0  0  0  0  0  0  0  0  0  0  0
   -5.3083    0.7500    0.0000 N   0  0  0  0  0  0  0  0  0  0  0  0
   -3.8817    1.2135    0.0000 N   0  0  0  0  0  0  0  0  0  0  0  0
   -3.4182    2.6401    0.0000 C   0  0  0  0  0  0  0  0  0  0  0  0
   -1.9509    2.9520    0.0000 C   0  0  0  0  0  0  0  0  0  0  0  0
   -1.4874    4.3786    0.0000 C   0  0  0  0  0  0  0  0  0  0  0  0
   -2.4911    5.4933    0.0000 C   0  0  0  0  0  0  0  0  0  0  0  0
   -3.9583    5.1814    0.0000 C   0  0  0  0  0  0  0  0  0  0  0  0
   -4.4218    3.7548    0.0000 C   0  0  0  0  0  0  0  0  0  0  0  0
   -5.8891    3.4430    0.0000 C   0  0  0  0  0  0  0  0  0  0  0  0
   -6.8928    4.5577    0.0000 C   0  0  0  0  0  0  0  0  0  0  0  0
   -8.3600    4.2458    0.0000 C   0  0  0  0  0  0  0  0  0  0  0  0
   -8.8235    2.8192    0.0000 C   0  0  0  0  0  0  0  0  0  0  0  0
  -10.2907    2.5074    0.0000 C   0  0  0  0  0  0  0  0  0  0  0  0
  -10.9008    1.1370    0.0000 N   0  0  0  0  0  0  0  0  0  0  0  0
  -12.3926    1.2938    0.0000 N   0  0  0  0  0  0  0  0  0  0  0  0
  -12.7045    2.7611    0.0000 N   0  0  0  0  0  0  0  0  0  0  0  0
  -11.4055    3.5111    0.0000 N   0  0  0  0  0  0  0  0  0  0  0  0
  -11.2487    5.0028    0.0000 C   0  0  0  0  0  0  0  0  0  0  0  0
   -9.9496    5.7528    0.0000 N   0  0  0  0  0  0  0  0  0  0  0  0
  -10.2615    7.2201    0.0000 N   0  0  0  0  0  0  0  0  0  0  0  0
  -11.7533    7.3769    0.0000 N   0  0  0  0  0  0  0  0  0  0  0  0
  -12.3634    6.0065    0.0000 N   0  0  0  0  0  0  0  0  0  0  0  0
  -13.8306    5.6947    0.0000 C   0  0  0  0  0  0  0  0  0  0  0  0
  -14.2941    4.2681    0.0000 C   0  0  0  0  0  0  0  0  0  0  0  0
  -15.7613    3.9562    0.0000 C   0  0  0  0  0  0  0  0  0  0  0  0
  -16.7650    5.0709    0.0000 C   0  0  0  0  0  0  0  0  0  0  0  0
  -16.3015    6.4975    0.0000 C   0  0  0  0  0  0  0  0  0  0  0  0
  -14.8343    6.8094    0.0000 C   0  0  0  0  0  0  0  0  0  0  0  0
   -7.8198    1.7045    0.0000 C   0  0  0  0  0  0  0  0  0  0  0  0
   -6.3526    2.0164    0.0000 C   0  0  0  0  0  0  0  0  0  0  0  0
   -0.7500   -1.2990    0.0000 C   0  0  0  0  0  0  0  0  0  0  0  0
   -1.5000   -2.5981    0.0000 O   0  0  0  0  0  0  0  0  0  0  0  0
    0.7500   -1.2990    0.0000 N   0  0  0  0  0  0  0  0  0  0  0  0
  1  2  1  0
  2  3  1  0
  3  4  2  0
  4  5  1  0
  5  6  2  0
  6  7  1  0
  7  8  2  0
  8  9  1  0
  9 10  2  0
 10 11  1  0
 11 12  1  0
 12 13  1  0
 13 14  1  0
 14 15  1  0
 15 16  1  0
 16 17  1  0
 17 18  1  0
 18 19  2  0
 19 20  1  0
 20 21  2  0
 21 22  1  0
 22 23  2  0
 23 24  1  0
 24 25  2  0
 25 26  1  0
 26 27  1  0
 27 28  2  0
 28 29  1  0
 29 30  2  0
 30 31  1  0
 31 32  1  0
 32 33  2  0
 33 34  1  0
 34 35  2  0
 35 36  1  0
 36 37  2  0
 21 38  1  0
 38 39  2  0
  6 40  1  0
 40 41  2  0
 40 42  1  0
 42  3  1  0
 11  7  1  0
 17 12  1  0
 39 18  1  0
 26 22  1  0
 31 27  1  0
 37 32  1  0
M  END
>  <Title>  (307) 
idAALUgen8

$$$$

     RDKit          2D

 19 20  0  0  0  0  0  0  0  0999 V2000
    3.5863    5.3994    0.0000 C   0  0  0  0  0  0  0  0  0  0  0  0
    2.1191    5.0875    0.0000 C   0  0  0  0  0  0  0  0  0  0  0  0
    2.1191    3.5875    0.0000 C   0  0  0  0  0  0  0  0  0  0  0  0
    1.5090    2.2172    0.0000 C   0  0  0  0  0  0  0  0  0  0  0  0
    0.3943    1.2135    0.0000 C   0  0  0  0  0  0  0  0  0  0  0  0
    1.2760    0.0000    0.0000 C   0  0  0  0  0  0  0  0  0  0  0  0
    0.3943   -1.2135    0.0000 C   0  0  0  0  0  0  0  0  0  0  0  0
   -1.0323   -0.7500    0.0000 C   0  0  0  0  0  0  0  0  0  0  0  0
   -1.0323    0.7500    0.0000 C   0  0  0  0  0  0  0  0  0  0  0  0
   -2.5241    0.9068    0.0000 N   0  0  0  0  0  0  0  0  0  0  0  0
   -3.8231    1.6568    0.0000 C   0  0  0  0  0  0  0  0  0  0  0  0
   -4.7048    2.8703    0.0000 C   0  0  0  0  0  0  0  0  0  0  0  0
   -5.0167    4.3375    0.0000 C   0  0  0  0  0  0  0  0  0  0  0  0
   -4.7048    5.8048    0.0000 C   0  0  0  0  0  0  0  0  0  0  0  0
   -3.8231    7.0183    0.0000 C   0  0  0  0  0  0  0  0  0  0  0  0
   -2.5241    7.7683    0.0000 C   0  0  0  0  0  0  0  0  0  0  0  0
   -1.0323    7.9251    0.0000 C   0  0  0  0  0  0  0  0  0  0  0  0
    0.3943    7.4616    0.0000 C   0  0  0  0  0  0  0  0  0  0  0  0
    1.5090    6.4579    0.0000 C   0  0  0  0  0  0  0  0  0  0  0  0
  1  2  1  0
  2  3  2  0
  3  4  1  0
  4  5  2  0
  5  6  1  0
  6  7  2  0
  7  8  1  0
  8  9  2  0
  9 10  1  0
 10 11  1  0
 11 12  1  0
 12 13  2  0
 13 14  1  0
 14 15  2  0
 15 16  1  0
 16 17  2  0
 17 18  1  0
 18 19  2  0
 19  2  1  0
  9  5  1  0
M  END
>  <Title>  (308) 
idAALVgen8

$$$$

     RDKit          2D

 39 44  0  0  0  0  0  0  0  0999 V2000
    3.7500   -1.2990    0.0000 C   0  0  0  0  0  0  0  0  0  0  0  0
    3.0000    0.0000    0.0000 O   0  0  0  0  0  0  0  0  0  0  0  0
    1.5000    0.0000    0.0000 C   0  0  0  0  0  0  0  0  0  0  0  0
    0.7500   -1.2990    0.0000 C   0  0  0  0  0  0  0  0  0  0  0  0
   -0.7500   -1.2990    0.0000 C   0  0  0  0  0  0  0  0  0  0  0  0
   -1.5000    0.0000    0.0000 C   0  0  0  0  0  0  0  0  0  0  0  0
   -3.0000    0.0000    0.0000 C   0  0  0  0  0  0  0  0  0  0  0  0
   -3.7500   -1.2990    0.0000 O   0  0  0  0  0  0  0  0  0  0  0  0
   -3.7500    1.2990    0.0000 N   0  0  0  0  0  0  0  0  0  0  0  0
   -5.2500    1.2990    0.0000 C   0  0  0  0  0  0  0  0  0  0  0  0
   -6.1317    0.0855    0.0000 N   0  0  0  0  0  0  0  0  0  0  0  0
   -7.5583    0.5490    0.0000 N   0  0  0  0  0  0  0  0  0  0  0  0
   -7.5583    2.0490    0.0000 N   0  0  0  0  0  0  0  0  0  0  0  0
   -6.1317    2.5126    0.0000 N   0  0  0  0  0  0  0  0  0  0  0  0
   -5.6682    3.9391    0.0000 C   0  0  0  0  0  0  0  0  0  0  0  0
   -4.2009    4.2510    0.0000 C   0  0  0  0  0  0  0  0  0  0  0  0
   -3.7374    5.6776    0.0000 C   0  0  0  0  0  0  0  0  0  0  0  0
   -4.7411    6.7923    0.0000 C   0  0  0  0  0  0  0  0  0  0  0  0
   -4.2776    8.2189    0.0000 C   0  0  0  0  0  0  0  0  0  0  0  0
   -5.1593    9.4324    0.0000 N   0  0  0  0  0  0  0  0  0  0  0  0
   -4.2776   10.6460    0.0000 N   0  0  0  0  0  0  0  0  0  0  0  0
   -2.8510   10.1824    0.0000 N   0  0  0  0  0  0  0  0  0  0  0  0
   -2.8510    8.6824    0.0000 N   0  0  0  0  0  0  0  0  0  0  0  0
   -1.6375    7.8008    0.0000 C   0  0  0  0  0  0  0  0  0  0  0  0
   -1.7943    6.3090    0.0000 C   0  0  0  0  0  0  0  0  0  0  0  0
   -0.5807    5.4273    0.0000 C   0  0  0  0  0  0  0  0  0  0  0  0
    0.7896    6.0374    0.0000 C   0  0  0  0  0  0  0  0  0  0  0  0
    0.9464    7.5292    0.0000 C   0  0  0  0  0  0  0  0  0  0  0  0
   -0.2671    8.4109    0.0000 C   0  0  0  0  0  0  0  0  0  0  0  0
   -0.1104    9.9026    0.0000 C   0  0  0  0  0  0  0  0  0  0  0  0
    1.2600   10.5127    0.0000 C   0  0  0  0  0  0  0  0  0  0  0  0
    1.4168   12.0045    0.0000 C   0  0  0  0  0  0  0  0  0  0  0  0
    0.2032   12.8862    0.0000 C   0  0  0  0  0  0  0  0  0  0  0  0
   -1.1671   12.2761    0.0000 C   0  0  0  0  0  0  0  0  0  0  0  0
   -1.3239   10.7843    0.0000 C   0  0  0  0  0  0  0  0  0  0  0  0
   -6.2083    6.4805    0.0000 C   0  0  0  0  0  0  0  0  0  0  0  0
   -6.6718    5.0539    0.0000 C   0  0  0  0  0  0  0  0  0  0  0  0
   -0.7500    1.2990    0.0000 C   0  0  0  0  0  0  0  0  0  0  0  0
    0.7500    1.2990    0.0000 N   0  0  0  0  0  0  0  0  0  0  0  0
  1  2  1  0
  2  3  1  0
  3  4  2  0
  4  5  1  0
  5  6  2  0
  6  7  1  0
  7  8  2  0
  7  9  1  0
  9 10  1  0
 10 11  2  0
 11 12  1  0
 12 13  2  0
 13 14  1  0
 14 15  1  0
 15 16  2  0
 16 17  1  0
 17 18  2  0
 18 19  1  0
 19 20  2  0
 20 21  1  0
 21 22  2  0
 22 23  1  0
 23 24  1  0
 24 25  2  0
 25 26  1  0
 26 27  2  0
 27 28  1  0
 28 29  2  0
 29 30  1  0
 30 31  2  0
 31 32  1  0
 32 33  2  0
 33 34  1  0
 34 35  2  0
 18 36  1  0
 36 37  2  0
  6 38  1  0
 38 39  1  0
 39  3  1  0
 14 10  1  0
 37 15  1  0
 23 19  1  0
 29 24  1  0
 35 30  1  0
M  END
>  <Title>  (309) 
idAALWgen8

$$$$

     RDKit          2D

 27 27  0  0  0  0  0  0  0  0999 V2000
    7.2460    0.0000    0.0000 C   0  0  0  0  0  0  0  0  0  0  0  0
    5.7460    0.0000    0.0000 C   0  0  0  0  0  0  0  0  0  0  0  0
    5.5502   -1.4872    0.0000 C   0  0  0  0  0  0  0  0  0  0  0  0
    4.9762   -2.8730    0.0000 C   0  0  0  0  0  0  0  0  0  0  0  0
    4.0630   -4.0630    0.0000 C   0  0  0  0  0  0  0  0  0  0  0  0
    2.8730   -4.9762    0.0000 C   0  0  0  0  0  0  0  0  0  0  0  0
    1.4872   -5.5502    0.0000 C   0  0  0  0  0  0  0  0  0  0  0  0
   -0.0000   -5.7460    0.0000 C   0  0  0  0  0  0  0  0  0  0  0  0
   -1.4872   -5.5502    0.0000 C   0  0  0  0  0  0  0  0  0  0  0  0
   -2.8730   -4.9762    0.0000 C   0  0  0  0  0  0  0  0  0  0  0  0
   -4.0630   -4.0630    0.0000 C   0  0  0  0  0  0  0  0  0  0  0  0
   -4.9762   -2.8730    0.0000 C   0  0  0  0  0  0  0  0  0  0  0  0
   -5.5502   -1.4872    0.0000 C   0  0  0  0  0  0  0  0  0  0  0  0
   -5.7460    0.0000    0.0000 C   0  0  0  0  0  0  0  0  0  0  0  0
   -5.5502    1.4872    0.0000 C   0  0  0  0  0  0  0  0  0  0  0  0
   -4.9762    2.8730    0.0000 C   0  0  0  0  0  0  0  0  0  0  0  0
   -4.0630    4.0630    0.0000 C   0  0  0  0  0  0  0  0  0  0  0  0
   -2.8730    4.9762    0.0000 C   0  0  0  0  0  0  0  0  0  0  0  0
   -1.4872    5.5502    0.0000 C   0  0  0  0  0  0  0  0  0  0  0  0
    0.0000    5.7460    0.0000 C   0  0  0  0  0  0  0  0  0  0  0  0
    1.4872    5.5502    0.0000 C   0  0  0  0  0  0  0  0  0  0  0  0
    2.8730    4.9762    0.0000 C   0  0  0  0  0  0  0  0  0  0  0  0
    4.0630    4.0630    0.0000 C   0  0  0  0  0  0  0  0  0  0  0  0
    5.1237    5.1237    0.0000 O   0  0  0  0  0  0  0  0  0  0  0  0
    4.9762    2.8730    0.0000 C   0  0  0  0  0  0  0  0  0  0  0  0
    6.2752    3.6230    0.0000 O   0  0  0  0  0  0  0  0  0  0  0  0
    5.5502    1.4872    0.0000 N   0  0  0  0  0  0  0  0  0  0  0  0
  1  2  1  0
  2  3  2  0
  3  4  1  0
  4  5  2  0
  5  6  1  0
  6  7  2  0
  7  8  1  0
  8  9  2  0
  9 10  1  0
 10 11  2  0
 11 12  1  0
 12 13  2  0
 13 14  1  0
 14 15  2  0
 15 16  1  0
 16 17  2  0
 17 18  1  0
 18 19  2  0
 19 20  1  0
 20 21  2  0
 21 22  1  0
 22 23  2  0
 23 24  1  0
 23 25  1  0
 25 26  2  0
 25 27  1  0
 27  2  1  0
M  END
>  <Title>  (310) 
idAALXgen8

$$$$

     RDKit          2D

 39 44  0  0  0  0  0  0  0  0999 V2000
   -2.8112   -6.5020    0.0000 C   0  0  0  0  0  0  0  0  0  0  0  0
   -1.3240   -6.3062    0.0000 O   0  0  0  0  0  0  0  0  0  0  0  0
   -0.7500   -4.9204    0.0000 C   0  0  0  0  0  0  0  0  0  0  0  0
    0.7500   -4.9204    0.0000 C   0  0  0  0  0  0  0  0  0  0  0  0
    1.8107   -3.8597    0.0000 C   0  0  0  0  0  0  0  0  0  0  0  0
    1.8107   -2.3597    0.0000 C   0  0  0  0  0  0  0  0  0  0  0  0
    3.1965   -1.7857    0.0000 C   0  0  0  0  0  0  0  0  0  0  0  0
    3.5466   -0.3271    0.0000 N   0  0  0  0  0  0  0  0  0  0  0  0
    5.0420   -0.2094    0.0000 N   0  0  0  0  0  0  0  0  0  0  0  0
    5.6160   -1.5952    0.0000 N   0  0  0  0  0  0  0  0  0  0  0  0
    4.4754   -2.5694    0.0000 N   0  0  0  0  0  0  0  0  0  0  0  0
    4.5931   -4.0648    0.0000 C   0  0  0  0  0  0  0  0  0  0  0  0
    5.8721   -4.8485    0.0000 C   0  0  0  0  0  0  0  0  0  0  0  0
    5.5219   -6.3071    0.0000 C   0  0  0  0  0  0  0  0  0  0  0  0
    4.0265   -6.4248    0.0000 C   0  0  0  0  0  0  0  0  0  0  0  0
    3.2428   -7.7037    0.0000 C   0  0  0  0  0  0  0  0  0  0  0  0
    1.7433   -7.6645    0.0000 O   0  0  0  0  0  0  0  0  0  0  0  0
    3.9585   -9.0220    0.0000 N   0  0  0  0  0  0  0  0  0  0  0  0
    3.1748  -10.3009    0.0000 C   0  0  0  0  0  0  0  0  0  0  0  0
    1.6794  -10.4186    0.0000 N   0  0  0  0  0  0  0  0  0  0  0  0
    1.3292  -11.8772    0.0000 N   0  0  0  0  0  0  0  0  0  0  0  0
    2.6082  -12.6609    0.0000 N   0  0  0  0  0  0  0  0  0  0  0  0
    3.7488  -11.6868    0.0000 N   0  0  0  0  0  0  0  0  0  0  0  0
    5.2074  -12.0369    0.0000 C   0  0  0  0  0  0  0  0  0  0  0  0
    5.6334  -13.4752    0.0000 C   0  0  0  0  0  0  0  0  0  0  0  0
    7.0919  -13.8253    0.0000 C   0  0  0  0  0  0  0  0  0  0  0  0
    8.1245  -12.7373    0.0000 C   0  0  0  0  0  0  0  0  0  0  0  0
    7.6985  -11.2990    0.0000 C   0  0  0  0  0  0  0  0  0  0  0  0
    6.2399  -10.9489    0.0000 C   0  0  0  0  0  0  0  0  0  0  0  0
    3.4525   -5.0390    0.0000 C   0  0  0  0  0  0  0  0  0  0  0  0
    1.9940   -4.6888    0.0000 O   0  0  0  0  0  0  0  0  0  0  0  0
    0.7500   -1.2990    0.0000 C   0  0  0  0  0  0  0  0  0  0  0  0
    1.5000    0.0000    0.0000 C   0  0  0  0  0  0  0  0  0  0  0  0
    0.7500    1.2990    0.0000 C   0  0  0  0  0  0  0  0  0  0  0  0
   -0.7500    1.2990    0.0000 C   0  0  0  0  0  0  0  0  0  0  0  0
   -1.5000    0.0000    0.0000 C   0  0  0  0  0  0  0  0  0  0  0  0
   -0.7500   -1.2990    0.0000 C   0  0  0  0  0  0  0  0  0  0  0  0
   -1.8107   -2.3597    0.0000 N   0  0  0  0  0  0  0  0  0  0  0  0
   -1.8107   -3.8597    0.0000 C   0  0  0  0  0  0  0  0  0  0  0  0
  1  2  1  0
  2  3  1  0
  3  4  2  0
  4  5  1  0
  5  6  2  0
  6  7  1  0
  7  8  2  0
  8  9  1  0
  9 10  2  0
 10 11  1  0
 11 12  1  0
 12 13  2  0
 13 14  1  0
 14 15  2  0
 15 16  1  0
 16 17  2  0
 16 18  1  0
 18 19  1  0
 19 20  2  0
 20 21  1  0
 21 22  2  0
 22 23  1  0
 23 24  1  0
 24 25  2  0
 25 26  1  0
 26 27  2  0
 27 28  1  0
 28 29  2  0
 15 30  1  0
 30 31  2  0
  6 32  1  0
 32 33  2  0
 33 34  1  0
 34 35  2  0
 35 36  1  0
 36 37  2  0
 37 38  1  0
 38 39  2  0
 39  3  1  0
 11  7  1  0
 30 12  1  0
 37 32  1  0
 23 19  1  0
 29 24  1  0
M  END
>  <Title>  (311) 
idAALYgen8

$$$$

     RDKit          2D

 15 15  0  0  0  0  0  0  0  0999 V2000
    4.8705    0.0000    0.0000 C   0  0  0  0  0  0  0  0  0  0  0  0
    3.3705    0.0000    0.0000 C   0  0  0  0  0  0  0  0  0  0  0  0
    3.0367   -1.4624    0.0000 C   0  0  0  0  0  0  0  0  0  0  0  0
    2.1015   -2.6351    0.0000 C   0  0  0  0  0  0  0  0  0  0  0  0
    0.7500   -3.2860    0.0000 C   0  0  0  0  0  0  0  0  0  0  0  0
   -0.7500   -3.2860    0.0000 C   0  0  0  0  0  0  0  0  0  0  0  0
   -2.1015   -2.6351    0.0000 C   0  0  0  0  0  0  0  0  0  0  0  0
   -3.0367   -1.4624    0.0000 C   0  0  0  0  0  0  0  0  0  0  0  0
   -3.3705    0.0000    0.0000 C   0  0  0  0  0  0  0  0  0  0  0  0
   -3.0367    1.4624    0.0000 C   0  0  0  0  0  0  0  0  0  0  0  0
   -2.1015    2.6351    0.0000 C   0  0  0  0  0  0  0  0  0  0  0  0
   -0.7500    3.2860    0.0000 C   0  0  0  0  0  0  0  0  0  0  0  0
    0.7500    3.2860    0.0000 C   0  0  0  0  0  0  0  0  0  0  0  0
    2.1015    2.6351    0.0000 C   0  0  0  0  0  0  0  0  0  0  0  0
    3.0367    1.4624    0.0000 C   0  0  0  0  0  0  0  0  0  0  0  0
  1  2  1  0
  2  3  2  0
  3  4  1  0
  4  5  2  0
  5  6  1  0
  6  7  2  0
  7  8  1  0
  8  9  2  0
  9 10  1  0
 10 11  2  0
 11 12  1  0
 12 13  2  0
 13 14  1  0
 14 15  2  0
 15  2  1  0
M  END
>  <Title>  (312) 
idAALZgen8

$$$$

     RDKit          2D

 29 32  0  0  0  0  0  0  0  0999 V2000
    2.2872   -8.1206    0.0000 O   0  0  0  0  0  0  0  0  0  0  0  0
    3.2909   -7.0059    0.0000 C   0  0  0  0  0  0  0  0  0  0  0  0
    2.8273   -5.5793    0.0000 N   0  0  0  0  0  0  0  0  0  0  0  0
    1.3601   -5.2674    0.0000 C   0  0  0  0  0  0  0  0  0  0  0  0
    0.2454   -6.2711    0.0000 N   0  0  0  0  0  0  0  0  0  0  0  0
   -1.0537   -5.5211    0.0000 N   0  0  0  0  0  0  0  0  0  0  0  0
   -0.7418   -4.0539    0.0000 N   0  0  0  0  0  0  0  0  0  0  0  0
    0.7500   -3.8971    0.0000 N   0  0  0  0  0  0  0  0  0  0  0  0
    1.5000   -2.5981    0.0000 C   0  0  0  0  0  0  0  0  0  0  0  0
    0.7500   -1.2990    0.0000 C   0  0  0  0  0  0  0  0  0  0  0  0
    1.5000    0.0000    0.0000 C   0  0  0  0  0  0  0  0  0  0  0  0
    0.7500    1.2990    0.0000 C   0  0  0  0  0  0  0  0  0  0  0  0
   -0.7500    1.2990    0.0000 C   0  0  0  0  0  0  0  0  0  0  0  0
   -1.5000    2.5981    0.0000 F   0  0  0  0  0  0  0  0  0  0  0  0
   -1.5000    0.0000    0.0000 C   0  0  0  0  0  0  0  0  0  0  0  0
   -0.7500   -1.2990    0.0000 C   0  0  0  0  0  0  0  0  0  0  0  0
    4.7581   -7.3178    0.0000 C   0  0  0  0  0  0  0  0  0  0  0  0
    5.2216   -8.7443    0.0000 C   0  0  0  0  0  0  0  0  0  0  0  0
    6.6888   -9.0562    0.0000 C   0  0  0  0  0  0  0  0  0  0  0  0
    7.6925   -7.9415    0.0000 C   0  0  0  0  0  0  0  0  0  0  0  0
    9.1597   -8.2534    0.0000 N   0  0  0  0  0  0  0  0  0  0  0  0
    9.6233   -9.6799    0.0000 C   0  0  0  0  0  0  0  0  0  0  0  0
   11.0905   -9.9918    0.0000 C   0  0  0  0  0  0  0  0  0  0  0  0
   12.0942   -8.8771    0.0000 C   0  0  0  0  0  0  0  0  0  0  0  0
   11.6307   -7.4505    0.0000 C   0  0  0  0  0  0  0  0  0  0  0  0
   10.1634   -7.1386    0.0000 C   0  0  0  0  0  0  0  0  0  0  0  0
    7.2290   -6.5149    0.0000 C   0  0  0  0  0  0  0  0  0  0  0  0
    8.2327   -5.4002    0.0000 O   0  0  0  0  0  0  0  0  0  0  0  0
    5.7618   -6.2030    0.0000 N   0  0  0  0  0  0  0  0  0  0  0  0
  1  2  2  0
  2  3  1  0
  3  4  1  0
  4  5  2  0
  5  6  1  0
  6  7  2  0
  7  8  1  0
  8  9  1  0
  9 10  1  0
 10 11  2  0
 11 12  1  0
 12 13  2  0
 13 14  1  0
 13 15  1  0
 15 16  2  0
  2 17  1  0
 17 18  2  0
 18 19  1  0
 19 20  2  0
 20 21  1  0
 21 22  1  0
 22 23  1  0
 23 24  1  0
 24 25  1  0
 25 26  1  0
 20 27  1  0
 27 28  2  0
 27 29  1  0
  8  4  1  0
 16 10  1  0
 29 17  1  0
 26 21  1  0
M  END
>  <Title>  (313) 
idAAMAgen8

$$$$

     RDKit          2D

 39 43  0  0  0  0  0  0  0  0999 V2000
    8.5190    6.6610    0.0000 C   0  0  0  0  0  0  0  0  0  0  0  0
    7.8480    5.3194    0.0000 C   0  0  0  0  0  0  0  0  0  0  0  0
    6.3507    5.2297    0.0000 C   0  0  0  0  0  0  0  0  0  0  0  0
    5.6798    3.8882    0.0000 C   0  0  0  0  0  0  0  0  0  0  0  0
    6.5061    2.6363    0.0000 C   0  0  0  0  0  0  0  0  0  0  0  0
    5.8351    1.2947    0.0000 N   0  0  0  0  0  0  0  0  0  0  0  0
    6.6615    0.0429    0.0000 N   0  0  0  0  0  0  0  0  0  0  0  0
    5.9905   -1.2987    0.0000 N   0  0  0  0  0  0  0  0  0  0  0  0
    4.4932   -1.3884    0.0000 N   0  0  0  0  0  0  0  0  0  0  0  0
    3.6668   -0.1365    0.0000 N   0  0  0  0  0  0  0  0  0  0  0  0
    4.3378    1.2050    0.0000 N   0  0  0  0  0  0  0  0  0  0  0  0
    3.5115    2.4569    0.0000 C   0  0  0  0  0  0  0  0  0  0  0  0
    4.0385    3.8613    0.0000 C   0  0  0  0  0  0  0  0  0  0  0  0
    2.8658    4.7965    0.0000 N   0  0  0  0  0  0  0  0  0  0  0  0
    1.6139    3.9701    0.0000 N   0  0  0  0  0  0  0  0  0  0  0  0
    2.0130    2.5242    0.0000 N   0  0  0  0  0  0  0  0  0  0  0  0
    1.0777    1.3515    0.0000 C   0  0  0  0  0  0  0  0  0  0  0  0
    1.7286    0.0000    0.0000 C   0  0  0  0  0  0  0  0  0  0  0  0
    1.0777   -1.3515    0.0000 C   0  0  0  0  0  0  0  0  0  0  0  0
   -0.3846   -1.6852    0.0000 C   0  0  0  0  0  0  0  0  0  0  0  0
   -0.7184   -3.1476    0.0000 C   0  0  0  0  0  0  0  0  0  0  0  0
    0.3812   -4.1679    0.0000 O   0  0  0  0  0  0  0  0  0  0  0  0
   -2.1518   -3.5898    0.0000 N   0  0  0  0  0  0  0  0  0  0  0  0
   -2.4856   -5.0522    0.0000 O   0  0  0  0  0  0  0  0  0  0  0  0
   -1.5574   -0.7500    0.0000 C   0  0  0  0  0  0  0  0  0  0  0  0
   -2.9088   -1.4008    0.0000 N   0  0  0  0  0  0  0  0  0  0  0  0
   -1.5574    0.7500    0.0000 N   0  0  0  0  0  0  0  0  0  0  0  0
   -0.3846    1.6852    0.0000 N   0  0  0  0  0  0  0  0  0  0  0  0
   -0.7184    3.1476    0.0000 C   0  0  0  0  0  0  0  0  0  0  0  0
    0.3812    4.1679    0.0000 C   0  0  0  0  0  0  0  0  0  0  0  0
    0.0474    5.6303    0.0000 C   0  0  0  0  0  0  0  0  0  0  0  0
   -1.3860    6.0724    0.0000 C   0  0  0  0  0  0  0  0  0  0  0  0
   -1.7198    7.5348    0.0000 C   0  0  0  0  0  0  0  0  0  0  0  0
   -2.4856    5.0522    0.0000 C   0  0  0  0  0  0  0  0  0  0  0  0
   -3.9189    5.4943    0.0000 O   0  0  0  0  0  0  0  0  0  0  0  0
   -2.1518    3.5898    0.0000 N   0  0  0  0  0  0  0  0  0  0  0  0
    8.0034    2.7260    0.0000 C   0  0  0  0  0  0  0  0  0  0  0  0
    8.8298    1.4742    0.0000 O   0  0  0  0  0  0  0  0  0  0  0  0
    8.6744    4.0676    0.0000 N   0  0  0  0  0  0  0  0  0  0  0  0
  1  2  1  0
  2  3  2  0
  3  4  1  0
  4  5  2  0
  5  6  1  0
  6  7  1  0
  7  8  2  0
  8  9  1  0
  9 10  2  0
 10 11  1  0
 11 12  1  0
 12 13  2  0
 13 14  1  0
 14 15  2  0
 15 16  1  0
 16 17  1  0
 17 18  2  0
 18 19  1  0
 19 20  2  0
 20 21  1  0
 21 22  2  0
 21 23  1  0
 23 24  1  0
 20 25  1  0
 25 26  1  0
 25 27  2  0
 27 28  1  0
 28 29  1  0
 29 30  2  0
 30 31  1  0
 31 32  2  0
 32 33  1  0
 32 34  1  0
 34 35  2  0
 34 36  1  0
  5 37  1  0
 37 38  2  0
 37 39  1  0
 39  2  1  0
 11  6  1  0
 16 12  1  0
 28 17  1  0
 36 29  1  0
M  END
>  <Title>  (314) 
idAAMBgen8

$$$$

     RDKit          2D

 38 38  0  0  0  0  0  0  0  0999 V2000
   11.8785   -1.2990    0.0000 C   0  0  0  0  0  0  0  0  0  0  0  0
   10.3785   -1.2990    0.0000 C   0  0  0  0  0  0  0  0  0  0  0  0
    9.6285   -2.5981    0.0000 O   0  0  0  0  0  0  0  0  0  0  0  0
    9.6285    0.0000    0.0000 O   0  0  0  0  0  0  0  0  0  0  0  0
    8.1285    0.0000    0.0000 C   0  0  0  0  0  0  0  0  0  0  0  0
    7.9901   -1.4936    0.0000 C   0  0  0  0  0  0  0  0  0  0  0  0
    7.5796   -2.9363    0.0000 C   0  0  0  0  0  0  0  0  0  0  0  0
    6.9110   -4.2791    0.0000 C   0  0  0  0  0  0  0  0  0  0  0  0
    6.0070   -5.4761    0.0000 C   0  0  0  0  0  0  0  0  0  0  0  0
    4.8985   -6.4867    0.0000 C   0  0  0  0  0  0  0  0  0  0  0  0
    3.6232   -7.2763    0.0000 C   0  0  0  0  0  0  0  0  0  0  0  0
    2.2245   -7.8182    0.0000 C   0  0  0  0  0  0  0  0  0  0  0  0
    0.7500   -8.0938    0.0000 C   0  0  0  0  0  0  0  0  0  0  0  0
   -0.7500   -8.0938    0.0000 C   0  0  0  0  0  0  0  0  0  0  0  0
   -2.2245   -7.8182    0.0000 C   0  0  0  0  0  0  0  0  0  0  0  0
   -3.6232   -7.2763    0.0000 C   0  0  0  0  0  0  0  0  0  0  0  0
   -4.8985   -6.4867    0.0000 C   0  0  0  0  0  0  0  0  0  0  0  0
   -6.0070   -5.4761    0.0000 C   0  0  0  0  0  0  0  0  0  0  0  0
   -6.9110   -4.2791    0.0000 C   0  0  0  0  0  0  0  0  0  0  0  0
   -7.5796   -2.9363    0.0000 C   0  0  0  0  0  0  0  0  0  0  0  0
   -7.9901   -1.4936    0.0000 C   0  0  0  0  0  0  0  0  0  0  0  0
   -8.1285    0.0000    0.0000 C   0  0  0  0  0  0  0  0  0  0  0  0
   -7.9901    1.4936    0.0000 C   0  0  0  0  0  0  0  0  0  0  0  0
   -7.5796    2.9363    0.0000 C   0  0  0  0  0  0  0  0  0  0  0  0
   -6.9110    4.2791    0.0000 C   0  0  0  0  0  0  0  0  0  0  0  0
   -6.0070    5.4761    0.0000 C   0  0  0  0  0  0  0  0  0  0  0  0
   -4.8985    6.4867    0.0000 C   0  0  0  0  0  0  0  0  0  0  0  0
   -3.6232    7.2763    0.0000 C   0  0  0  0  0  0  0  0  0  0  0  0
   -2.2245    7.8182    0.0000 C   0  0  0  0  0  0  0  0  0  0  0  0
   -0.7500    8.0938    0.0000 C   0  0  0  0  0  0  0  0  0  0  0  0
    0.7500    8.0938    0.0000 C   0  0  0  0  0  0  0  0  0  0  0  0
    2.2245    7.8182    0.0000 C   0  0  0  0  0  0  0  0  0  0  0  0
    3.6232    7.2763    0.0000 C   0  0  0  0  0  0  0  0  0  0  0  0
    4.8985    6.4867    0.0000 C   0  0  0  0  0  0  0  0  0  0  0  0
    6.0070    5.4761    0.0000 C   0  0  0  0  0  0  0  0  0  0  0  0
    6.9110    4.2791    0.0000 C   0  0  0  0  0  0  0  0  0  0  0  0
    7.5796    2.9363    0.0000 C   0  0  0  0  0  0  0  0  0  0  0  0
    7.9901    1.4936    0.0000 C   0  0  0  0  0  0  0  0  0  0  0  0
  1  2  1  0
  2  3  2  0
  2  4  1  0
  4  5  1  0
  5  6  2  0
  6  7  1  0
  7  8  2  0
  8  9  1  0
  9 10  2  0
 10 11  1  0
 11 12  2  0
 12 13  1  0
 13 14  2  0
 14 15  1  0
 15 16  2  0
 16 17  1  0
 17 18  2  0
 18 19  1  0
 19 20  2  0
 20 21  1  0
 21 22  2  0
 22 23  1  0
 23 24  2  0
 24 25  1  0
 25 26  2  0
 26 27  1  0
 27 28  2  0
 28 29  1  0
 29 30  2  0
 30 31  1  0
 31 32  2  0
 32 33  1  0
 33 34  2  0
 34 35  1  0
 35 36  2  0
 36 37  1  0
 37 38  2  0
 38  5  1  0
M  END
>  <Title>  (315) 
idAAMCgen8

$$$$

     RDKit          2D

 38 43  0  0  0  0  0  0  0  0999 V2000
   -6.0000   -5.1962    0.0000 C   0  0  0  0  0  0  0  0  0  0  0  0
   -5.2500   -3.8971    0.0000 C   0  0  0  0  0  0  0  0  0  0  0  0
   -6.0000   -2.5981    0.0000 C   0  0  0  0  0  0  0  0  0  0  0  0
   -5.2500   -1.2990    0.0000 C   0  0  0  0  0  0  0  0  0  0  0  0
   -3.7500   -1.2990    0.0000 C   0  0  0  0  0  0  0  0  0  0  0  0
   -3.0000    0.0000    0.0000 C   0  0  0  0  0  0  0  0  0  0  0  0
   -3.7500    1.2990    0.0000 C   0  0  0  0  0  0  0  0  0  0  0  0
   -5.2418    1.4558    0.0000 N   0  0  0  0  0  0  0  0  0  0  0  0
   -5.5537    2.9231    0.0000 N   0  0  0  0  0  0  0  0  0  0  0  0
   -4.2546    3.6731    0.0000 N   0  0  0  0  0  0  0  0  0  0  0  0
   -3.1399    2.6694    0.0000 N   0  0  0  0  0  0  0  0  0  0  0  0
   -1.6727    2.9812    0.0000 C   0  0  0  0  0  0  0  0  0  0  0  0
   -0.6690    1.8665    0.0000 C   0  0  0  0  0  0  0  0  0  0  0  0
    0.7982    2.1784    0.0000 C   0  0  0  0  0  0  0  0  0  0  0  0
    1.2618    3.6050    0.0000 C   0  0  0  0  0  0  0  0  0  0  0  0
    2.7290    3.9168    0.0000 C   0  0  0  0  0  0  0  0  0  0  0  0
    3.7327    2.8021    0.0000 C   0  0  0  0  0  0  0  0  0  0  0  0
    5.1999    3.1140    0.0000 C   0  0  0  0  0  0  0  0  0  0  0  0
    5.6634    4.5406    0.0000 C   0  0  0  0  0  0  0  0  0  0  0  0
    7.1307    4.8524    0.0000 C   0  0  0  0  0  0  0  0  0  0  0  0
    8.1344    3.7377    0.0000 C   0  0  0  0  0  0  0  0  0  0  0  0
    9.6016    4.0496    0.0000 C   0  0  0  0  0  0  0  0  0  0  0  0
   10.0651    5.4762    0.0000 C   0  0  0  0  0  0  0  0  0  0  0  0
    9.0614    6.5909    0.0000 C   0  0  0  0  0  0  0  0  0  0  0  0
    7.5942    6.2790    0.0000 C   0  0  0  0  0  0  0  0  0  0  0  0
    4.6597    5.6553    0.0000 C   0  0  0  0  0  0  0  0  0  0  0  0
    3.1925    5.3434    0.0000 C   0  0  0  0  0  0  0  0  0  0  0  0
    2.1888    6.4581    0.0000 C   0  0  0  0  0  0  0  0  0  0  0  0
    2.6523    7.8847    0.0000 C   0  0  0  0  0  0  0  0  0  0  0  0
    1.6486    8.9994    0.0000 C   0  0  0  0  0  0  0  0  0  0  0  0
    0.1814    8.6876    0.0000 C   0  0  0  0  0  0  0  0  0  0  0  0
   -0.2821    7.2610    0.0000 C   0  0  0  0  0  0  0  0  0  0  0  0
    0.7216    6.1463    0.0000 C   0  0  0  0  0  0  0  0  0  0  0  0
    0.2581    4.7197    0.0000 C   0  0  0  0  0  0  0  0  0  0  0  0
   -1.2091    4.4078    0.0000 C   0  0  0  0  0  0  0  0  0  0  0  0
   -3.0000   -2.5981    0.0000 C   0  0  0  0  0  0  0  0  0  0  0  0
   -1.5000   -2.5981    0.0000 O   0  0  0  0  0  0  0  0  0  0  0  0
   -3.7500   -3.8971    0.0000 N   0  0  0  0  0  0  0  0  0  0  0  0
  1  2  1  0
  2  3  2  0
  3  4  1  0
  4  5  2  0
  5  6  1  0
  6  7  1  0
  7  8  2  0
  8  9  1  0
  9 10  2  0
 10 11  1  0
 11 12  1  0
 12 13  2  0
 13 14  1  0
 14 15  2  0
 15 16  1  0
 16 17  2  0
 17 18  1  0
 18 19  2  0
 19 20  1  0
 20 21  2  0
 21 22  1  0
 22 23  2  0
 23 24  1  0
 24 25  2  0
 19 26  1  0
 26 27  2  0
 27 28  1  0
 28 29  2  0
 29 30  1  0
 30 31  2  0
 31 32  1  0
 32 33  2  0
 15 34  1  0
 34 35  2  0
  5 36  1  0
 36 37  2  0
 36 38  1  0
 38  2  1  0
 11  7  1  0
 35 12  1  0
 27 16  1  0
 33 28  1  0
 25 20  1  0
M  END
>  <Title>  (316) 
idAAMDgen8

$$$$

     RDKit          2D

 62 71  0  0  0  0  0  0  0  0999 V2000
   -3.6181    2.5247    0.0000 C   0  0  0  0  0  0  0  0  0  0  0  0
   -4.9546    1.8437    0.0000 O   0  0  0  0  0  0  0  0  0  0  0  0
   -5.0331    0.3458    0.0000 C   0  0  0  0  0  0  0  0  0  0  0  0
   -6.2911   -0.4712    0.0000 C   0  0  0  0  0  0  0  0  0  0  0  0
   -5.9029   -1.9201    0.0000 C   0  0  0  0  0  0  0  0  0  0  0  0
   -4.4050   -1.9986    0.0000 C   0  0  0  0  0  0  0  0  0  0  0  0
   -3.5880   -3.2566    0.0000 C   0  0  0  0  0  0  0  0  0  0  0  0
   -4.5722   -4.3886    0.0000 O   0  0  0  0  0  0  0  0  0  0  0  0
   -2.0901   -3.1781    0.0000 N   0  0  0  0  0  0  0  0  0  0  0  0
   -1.2731   -4.4361    0.0000 C   0  0  0  0  0  0  0  0  0  0  0  0
    0.2248   -4.5146    0.0000 N   0  0  0  0  0  0  0  0  0  0  0  0
    0.6131   -5.9635    0.0000 N   0  0  0  0  0  0  0  0  0  0  0  0
   -0.6449   -6.7804    0.0000 N   0  0  0  0  0  0  0  0  0  0  0  0
   -1.8107   -5.8365    0.0000 N   0  0  0  0  0  0  0  0  0  0  0  0
   -3.2595   -6.2247    0.0000 C   0  0  0  0  0  0  0  0  0  0  0  0
   -4.3202   -5.1640    0.0000 C   0  0  0  0  0  0  0  0  0  0  0  0
   -5.7691   -5.5523    0.0000 C   0  0  0  0  0  0  0  0  0  0  0  0
   -6.1573   -7.0011    0.0000 C   0  0  0  0  0  0  0  0  0  0  0  0
   -7.6062   -7.3894    0.0000 C   0  0  0  0  0  0  0  0  0  0  0  0
   -8.1438   -8.7897    0.0000 N   0  0  0  0  0  0  0  0  0  0  0  0
   -9.6417   -8.7112    0.0000 N   0  0  0  0  0  0  0  0  0  0  0  0
  -10.0299   -7.2623    0.0000 N   0  0  0  0  0  0  0  0  0  0  0  0
   -8.7719   -6.4454    0.0000 N   0  0  0  0  0  0  0  0  0  0  0  0
   -8.6934   -4.9474    0.0000 C   0  0  0  0  0  0  0  0  0  0  0  0
   -7.3569   -4.2665    0.0000 C   0  0  0  0  0  0  0  0  0  0  0  0
   -7.2784   -2.7685    0.0000 C   0  0  0  0  0  0  0  0  0  0  0  0
   -8.5364   -1.9516    0.0000 C   0  0  0  0  0  0  0  0  0  0  0  0
   -9.8729   -2.6325    0.0000 C   0  0  0  0  0  0  0  0  0  0  0  0
   -9.9514   -4.1305    0.0000 C   0  0  0  0  0  0  0  0  0  0  0  0
   -5.0967   -8.0618    0.0000 C   0  0  0  0  0  0  0  0  0  0  0  0
   -3.6478   -7.6736    0.0000 C   0  0  0  0  0  0  0  0  0  0  0  0
   -2.5871   -8.7342    0.0000 C   0  0  0  0  0  0  0  0  0  0  0  0
   -2.9753  -10.1831    0.0000 C   0  0  0  0  0  0  0  0  0  0  0  0
   -1.9147  -11.2438    0.0000 C   0  0  0  0  0  0  0  0  0  0  0  0
   -0.4658  -10.8556    0.0000 C   0  0  0  0  0  0  0  0  0  0  0  0
   -0.0776   -9.4067    0.0000 C   0  0  0  0  0  0  0  0  0  0  0  0
   -1.1382   -8.3460    0.0000 C   0  0  0  0  0  0  0  0  0  0  0  0
   -0.7500   -6.8971    0.0000 C   0  0  0  0  0  0  0  0  0  0  0  0
   -2.0490   -6.1471    0.0000 C   0  0  0  0  0  0  0  0  0  0  0  0
   -2.7990   -4.8481    0.0000 C   0  0  0  0  0  0  0  0  0  0  0  0
   -2.7990   -3.3481    0.0000 C   0  0  0  0  0  0  0  0  0  0  0  0
   -1.2990   -3.3481    0.0000 C   0  0  0  0  0  0  0  0  0  0  0  0
   -0.0000   -4.0981    0.0000 C   0  0  0  0  0  0  0  0  0  0  0  0
    0.7725   -2.8123    0.0000 C   0  0  0  0  0  0  0  0  0  0  0  0
    0.7500   -5.3971    0.0000 C   0  0  0  0  0  0  0  0  0  0  0  0
    0.7500   -6.8971    0.0000 C   0  0  0  0  0  0  0  0  0  0  0  0
    2.0490   -6.1471    0.0000 C   0  0  0  0  0  0  0  0  0  0  0  0
    2.7990   -4.8481    0.0000 C   0  0  0  0  0  0  0  0  0  0  0  0
    2.7990   -3.3481    0.0000 C   0  0  0  0  0  0  0  0  0  0  0  0
    2.0490   -2.0490    0.0000 C   0  0  0  0  0  0  0  0  0  0  0  0
    1.2990   -3.3481    0.0000 N   0  0  0  0  0  0  0  0  0  0  0  0
    1.2990   -4.8481    0.0000 C   0  0  0  0  0  0  0  0  0  0  0  0
   -0.0129   -5.5754    0.0000 O   0  0  0  0  0  0  0  0  0  0  0  0
    0.7500   -1.2990    0.0000 C   0  0  0  0  0  0  0  0  0  0  0  0
    1.5000    0.0000    0.0000 N   0  0  0  0  0  0  0  0  0  0  0  0
    0.7500    1.2990    0.0000 N   0  0  0  0  0  0  0  0  0  0  0  0
   -0.7500    1.2990    0.0000 N   0  0  0  0  0  0  0  0  0  0  0  0
   -1.5000    0.0000    0.0000 N   0  0  0  0  0  0  0  0  0  0  0  0
   -0.7500   -1.2990    0.0000 C   0  0  0  0  0  0  0  0  0  0  0  0
   -2.0490   -2.0490    0.0000 C   0  0  0  0  0  0  0  0  0  0  0  0
   -2.8215   -0.7632    0.0000 O   0  0  0  0  0  0  0  0  0  0  0  0
   -3.8674   -0.5982    0.0000 N   0  0  0  0  0  0  0  0  0  0  0  0
  1  2  1  0
  2  3  1  0
  3  4  2  0
  4  5  1  0
  5  6  2  0
  6  7  1  0
  7  8  2  0
  7  9  1  0
  9 10  1  0
 10 11  2  0
 11 12  1  0
 12 13  2  0
 13 14  1  0
 14 15  1  0
 15 16  2  0
 16 17  1  0
 17 18  2  0
 18 19  1  0
 19 20  2  0
 20 21  1  0
 21 22  2  0
 22 23  1  0
 23 24  1  0
 24 25  2  0
 25 26  1  0
 26 27  2  0
 27 28  1  0
 28 29  2  0
 18 30  1  0
 30 31  2  0
 31 32  1  0
 32 33  2  0
 33 34  1  0
 34 35  2  0
 35 36  1  0
 36 37  2  0
 37 38  1  0
 38 39  2  0
 39 40  1  0
 40 41  2  0
 41 42  1  0
 42 43  2  0
 43 44  1  0
 43 45  1  0
 45 46  2  0
 46 47  1  0
 47 48  2  0
 48 49  1  0
 49 50  2  0
 50 51  1  0
 51 52  1  0
 52 53  2  0
 50 54  1  0
 54 55  2  0
 55 56  1  0
 56 57  2  0
 57 58  1  0
 58 59  2  0
 59 60  1  0
 60 61  2  0
  6 62  1  0
 62  3  1  0
 14 10  1  0
 31 15  1  0
 37 32  1  0
 46 38  1  0
 52 47  1  0
 59 54  1  0
 23 19  1  0
 29 24  1  0
 60 41  1  0
M  END
>  <Title>  (317) 
idAAMEgen8

$$$$

     RDKit          2D

 58 66  0  0  0  0  0  0  0  0999 V2000
  -10.1624    4.2767    0.0000 C   0  0  0  0  0  0  0  0  0  0  0  0
   -8.9488    3.3950    0.0000 C   0  0  0  0  0  0  0  0  0  0  0  0
   -9.1056    1.9033    0.0000 C   0  0  0  0  0  0  0  0  0  0  0  0
   -7.8921    1.0216    0.0000 C   0  0  0  0  0  0  0  0  0  0  0  0
   -6.5218    1.6317    0.0000 C   0  0  0  0  0  0  0  0  0  0  0  0
   -5.3083    0.7500    0.0000 C   0  0  0  0  0  0  0  0  0  0  0  0
   -5.3083   -0.7500    0.0000 N   0  0  0  0  0  0  0  0  0  0  0  0
   -3.8817   -1.2135    0.0000 N   0  0  0  0  0  0  0  0  0  0  0  0
   -3.0000    0.0000    0.0000 N   0  0  0  0  0  0  0  0  0  0  0  0
   -3.8817    1.2135    0.0000 N   0  0  0  0  0  0  0  0  0  0  0  0
   -3.4182    2.6401    0.0000 C   0  0  0  0  0  0  0  0  0  0  0  0
   -4.2998    3.8536    0.0000 C   0  0  0  0  0  0  0  0  0  0  0  0
   -3.4182    5.0672    0.0000 N   0  0  0  0  0  0  0  0  0  0  0  0
   -1.9916    4.6036    0.0000 N   0  0  0  0  0  0  0  0  0  0  0  0
   -1.9916    3.1036    0.0000 N   0  0  0  0  0  0  0  0  0  0  0  0
   -0.7780    2.2220    0.0000 C   0  0  0  0  0  0  0  0  0  0  0  0
   -0.9348    0.7302    0.0000 C   0  0  0  0  0  0  0  0  0  0  0  0
    0.2787   -0.1515    0.0000 C   0  0  0  0  0  0  0  0  0  0  0  0
    1.6490    0.4586    0.0000 C   0  0  0  0  0  0  0  0  0  0  0  0
    2.8625   -0.4231    0.0000 C   0  0  0  0  0  0  0  0  0  0  0  0
    2.7057   -1.9149    0.0000 O   0  0  0  0  0  0  0  0  0  0  0  0
    4.2329    0.1870    0.0000 N   0  0  0  0  0  0  0  0  0  0  0  0
    5.4464   -0.6946    0.0000 C   0  0  0  0  0  0  0  0  0  0  0  0
    5.4464   -2.1946    0.0000 N   0  0  0  0  0  0  0  0  0  0  0  0
    6.8730   -2.6582    0.0000 N   0  0  0  0  0  0  0  0  0  0  0  0
    7.7546   -1.4446    0.0000 N   0  0  0  0  0  0  0  0  0  0  0  0
    6.8730   -0.2311    0.0000 N   0  0  0  0  0  0  0  0  0  0  0  0
    7.3365    1.1955    0.0000 C   0  0  0  0  0  0  0  0  0  0  0  0
    8.8037    1.5073    0.0000 C   0  0  0  0  0  0  0  0  0  0  0  0
    9.2672    2.9339    0.0000 C   0  0  0  0  0  0  0  0  0  0  0  0
    8.2635    4.0486    0.0000 C   0  0  0  0  0  0  0  0  0  0  0  0
    6.7963    3.7368    0.0000 C   0  0  0  0  0  0  0  0  0  0  0  0
    6.3328    2.3102    0.0000 C   0  0  0  0  0  0  0  0  0  0  0  0
    1.8058    1.9504    0.0000 C   0  0  0  0  0  0  0  0  0  0  0  0
    0.5923    2.8321    0.0000 C   0  0  0  0  0  0  0  0  0  0  0  0
    0.7491    4.3238    0.0000 C   0  0  0  0  0  0  0  0  0  0  0  0
   -0.3656    5.3275    0.0000 N   0  0  0  0  0  0  0  0  0  0  0  0
    0.2445    6.6979    0.0000 N   0  0  0  0  0  0  0  0  0  0  0  0
    1.7362    6.5411    0.0000 N   0  0  0  0  0  0  0  0  0  0  0  0
    2.0481    5.0738    0.0000 N   0  0  0  0  0  0  0  0  0  0  0  0
    3.4184    4.4637    0.0000 C   0  0  0  0  0  0  0  0  0  0  0  0
    3.5752    2.9720    0.0000 C   0  0  0  0  0  0  0  0  0  0  0  0
    4.9455    2.3619    0.0000 C   0  0  0  0  0  0  0  0  0  0  0  0
    6.1591    3.2435    0.0000 C   0  0  0  0  0  0  0  0  0  0  0  0
    6.0023    4.7353    0.0000 C   0  0  0  0  0  0  0  0  0  0  0  0
    4.6320    5.3454    0.0000 C   0  0  0  0  0  0  0  0  0  0  0  0
    4.4752    6.8372    0.0000 C   0  0  0  0  0  0  0  0  0  0  0  0
    5.6887    7.7189    0.0000 C   0  0  0  0  0  0  0  0  0  0  0  0
    5.5319    9.2107    0.0000 C   0  0  0  0  0  0  0  0  0  0  0  0
    4.1616    9.8208    0.0000 C   0  0  0  0  0  0  0  0  0  0  0  0
    4.0048   11.3125    0.0000 C   0  0  0  0  0  0  0  0  0  0  0  0
    2.6345   11.9227    0.0000 O   0  0  0  0  0  0  0  0  0  0  0  0
    5.2183   12.1942    0.0000 N   0  0  0  0  0  0  0  0  0  0  0  0
    5.0615   13.6860    0.0000 O   0  0  0  0  0  0  0  0  0  0  0  0
    2.9480    8.9391    0.0000 C   0  0  0  0  0  0  0  0  0  0  0  0
    3.1048    7.4473    0.0000 C   0  0  0  0  0  0  0  0  0  0  0  0
   -6.3650    3.1235    0.0000 C   0  0  0  0  0  0  0  0  0  0  0  0
   -7.5785    4.0051    0.0000 C   0  0  0  0  0  0  0  0  0  0  0  0
  1  2  1  0
  2  3  2  0
  3  4  1  0
  4  5  2  0
  5  6  1  0
  6  7  2  0
  7  8  1  0
  8  9  2  0
  9 10  1  0
 10 11  1  0
 11 12  2  0
 12 13  1  0
 13 14  2  0
 14 15  1  0
 15 16  1  0
 16 17  2  0
 17 18  1  0
 18 19  2  0
 19 20  1  0
 20 21  2  0
 20 22  1  0
 22 23  1  0
 23 24  2  0
 24 25  1  0
 25 26  2  0
 26 27  1  0
 27 28  1  0
 28 29  2  0
 29 30  1  0
 30 31  2  0
 31 32  1  0
 32 33  2  0
 19 34  1  0
 34 35  2  0
 35 36  1  0
 36 37  2  0
 37 38  1  0
 38 39  2  0
 39 40  1  0
 40 41  1  0
 41 42  2  0
 42 43  1  0
 43 44  2  0
 44 45  1  0
 45 46  2  0
 46 47  1  0
 47 48  2  0
 48 49  1  0
 49 50  2  0
 50 51  1  0
 51 52  2  0
 51 53  1  0
 53 54  1  0
 50 55  1  0
 55 56  1  0
  5 57  1  0
 57 58  1  0
 58  2  1  0
 10  6  1  0
 15 11  1  0
 35 16  1  0
 40 36  1  0
 46 41  1  0
 56 47  1  0
 27 23  1  0
 33 28  1  0
M  END
>  <Title>  (318) 
idAAMFgen8

$$$$

     RDKit          2D

 12 12  0  0  0  0  0  0  0  0999 V2000
    4.2098   -1.2990    0.0000 C   0  0  0  0  0  0  0  0  0  0  0  0
    3.4598   -0.0000    0.0000 O   0  0  0  0  0  0  0  0  0  0  0  0
    1.9598    0.0000    0.0000 C   0  0  0  0  0  0  0  0  0  0  0  0
    1.3858   -1.3858    0.0000 C   0  0  0  0  0  0  0  0  0  0  0  0
   -0.0000   -1.9598    0.0000 C   0  0  0  0  0  0  0  0  0  0  0  0
   -1.3858   -1.3858    0.0000 C   0  0  0  0  0  0  0  0  0  0  0  0
   -1.9598    0.0000    0.0000 C   0  0  0  0  0  0  0  0  0  0  0  0
   -1.3858    1.3858    0.0000 C   0  0  0  0  0  0  0  0  0  0  0  0
   -2.4465    2.4465    0.0000 F   0  0  0  0  0  0  0  0  0  0  0  0
    0.0000    1.9598    0.0000 C   0  0  0  0  0  0  0  0  0  0  0  0
    0.0000    3.4598    0.0000 N   0  0  0  0  0  0  0  0  0  0  0  0
    1.3858    1.3858    0.0000 N   0  0  0  0  0  0  0  0  0  0  0  0
  1  2  1  0
  2  3  1  0
  3  4  2  0
  4  5  1  0
  5  6  2  0
  6  7  1  0
  7  8  2  0
  8  9  1  0
  8 10  1  0
 10 11  1  0
 10 12  1  0
 12  3  1  0
M  END
>  <Title>  (319) 
idAAMGgen8

$$$$

     RDKit          2D

 24 26  0  0  0  0  0  0  0  0999 V2000
    3.7500   -1.2990    0.0000 C   0  0  0  0  0  0  0  0  0  0  0  0
    3.0000    0.0000    0.0000 O   0  0  0  0  0  0  0  0  0  0  0  0
    1.5000    0.0000    0.0000 C   0  0  0  0  0  0  0  0  0  0  0  0
    0.7500   -1.2990    0.0000 C   0  0  0  0  0  0  0  0  0  0  0  0
   -0.7500   -1.2990    0.0000 C   0  0  0  0  0  0  0  0  0  0  0  0
   -1.5000    0.0000    0.0000 C   0  0  0  0  0  0  0  0  0  0  0  0
   -3.0000    0.0000    0.0000 C   0  0  0  0  0  0  0  0  0  0  0  0
   -3.8817   -1.2135    0.0000 N   0  0  0  0  0  0  0  0  0  0  0  0
   -5.3083   -0.7500    0.0000 N   0  0  0  0  0  0  0  0  0  0  0  0
   -5.3083    0.7500    0.0000 N   0  0  0  0  0  0  0  0  0  0  0  0
   -3.8817    1.2135    0.0000 N   0  0  0  0  0  0  0  0  0  0  0  0
   -3.4182    2.6401    0.0000 C   0  0  0  0  0  0  0  0  0  0  0  0
   -1.9509    2.9520    0.0000 C   0  0  0  0  0  0  0  0  0  0  0  0
   -1.4874    4.3786    0.0000 C   0  0  0  0  0  0  0  0  0  0  0  0
   -2.4911    5.4933    0.0000 C   0  0  0  0  0  0  0  0  0  0  0  0
   -2.0276    6.9199    0.0000 C   0  0  0  0  0  0  0  0  0  0  0  0
   -3.0313    8.0346    0.0000 O   0  0  0  0  0  0  0  0  0  0  0  0
   -0.5604    7.2317    0.0000 N   0  0  0  0  0  0  0  0  0  0  0  0
   -0.0968    8.6583    0.0000 O   0  0  0  0  0  0  0  0  0  0  0  0
   -3.9583    5.1814    0.0000 C   0  0  0  0  0  0  0  0  0  0  0  0
   -4.9620    6.2961    0.0000 C   0  0  0  0  0  0  0  0  0  0  0  0
   -4.4218    3.7548    0.0000 C   0  0  0  0  0  0  0  0  0  0  0  0
   -0.7500    1.2990    0.0000 C   0  0  0  0  0  0  0  0  0  0  0  0
    0.7500    1.2990    0.0000 N   0  0  0  0  0  0  0  0  0  0  0  0
  1  2  1  0
  2  3  1  0
  3  4  2  0
  4  5  1  0
  5  6  2  0
  6  7  1  0
  7  8  2  0
  8  9  1  0
  9 10  2  0
 10 11  1  0
 11 12  1  0
 12 13  2  0
 13 14  1  0
 14 15  2  0
 15 16  1  0
 16 17  2  0
 16 18  1  0
 18 19  1  0
 15 20  1  0
 20 21  1  0
 20 22  2  0
  6 23  1  0
 23 24  1  0
 24  3  1  0
 11  7  1  0
 22 12  1  0
M  END
>  <Title>  (320) 
idAAMHgen8

$$$$

     RDKit          2D

 24 24  0  0  0  0  0  0  0  0999 V2000
    6.7700    0.0000    0.0000 C   0  0  0  0  0  0  0  0  0  0  0  0
    5.2700    0.0000    0.0000 C   0  0  0  0  0  0  0  0  0  0  0  0
    5.0565   -1.4847    0.0000 C   0  0  0  0  0  0  0  0  0  0  0  0
    4.4334   -2.8492    0.0000 C   0  0  0  0  0  0  0  0  0  0  0  0
    3.4511   -3.9828    0.0000 C   0  0  0  0  0  0  0  0  0  0  0  0
    2.1892   -4.7938    0.0000 C   0  0  0  0  0  0  0  0  0  0  0  0
    0.7500   -5.2164    0.0000 C   0  0  0  0  0  0  0  0  0  0  0  0
   -0.7500   -5.2164    0.0000 C   0  0  0  0  0  0  0  0  0  0  0  0
   -2.1892   -4.7938    0.0000 C   0  0  0  0  0  0  0  0  0  0  0  0
   -3.4511   -3.9828    0.0000 C   0  0  0  0  0  0  0  0  0  0  0  0
   -4.4334   -2.8492    0.0000 C   0  0  0  0  0  0  0  0  0  0  0  0
   -5.0565   -1.4847    0.0000 C   0  0  0  0  0  0  0  0  0  0  0  0
   -5.2700    0.0000    0.0000 C   0  0  0  0  0  0  0  0  0  0  0  0
   -5.0565    1.4847    0.0000 C   0  0  0  0  0  0  0  0  0  0  0  0
   -4.4334    2.8492    0.0000 C   0  0  0  0  0  0  0  0  0  0  0  0
   -3.4511    3.9828    0.0000 C   0  0  0  0  0  0  0  0  0  0  0  0
   -2.1892    4.7938    0.0000 C   0  0  0  0  0  0  0  0  0  0  0  0
   -0.7500    5.2164    0.0000 C   0  0  0  0  0  0  0  0  0  0  0  0
    0.7500    5.2164    0.0000 C   0  0  0  0  0  0  0  0  0  0  0  0
    2.1892    4.7938    0.0000 C   0  0  0  0  0  0  0  0  0  0  0  0
    3.4511    3.9828    0.0000 C   0  0  0  0  0  0  0  0  0  0  0  0
    4.4334    5.1164    0.0000 C   0  0  0  0  0  0  0  0  0  0  0  0
    4.4334    2.8492    0.0000 C   0  0  0  0  0  0  0  0  0  0  0  0
    5.0565    1.4847    0.0000 C   0  0  0  0  0  0  0  0  0  0  0  0
  1  2  1  0
  2  3  2  0
  3  4  1  0
  4  5  2  0
  5  6  1  0
  6  7  2  0
  7  8  1  0
  8  9  2  0
  9 10  1  0
 10 11  2  0
 11 12  1  0
 12 13  2  0
 13 14  1  0
 14 15  2  0
 15 16  1  0
 16 17  2  0
 17 18  1  0
 18 19  2  0
 19 20  1  0
 20 21  2  0
 21 22  1  0
 21 23  1  0
 23 24  2  0
 24  2  1  0
M  END
>  <Title>  (321) 
idAAMIgen8

$$$$

     RDKit          2D

 25 28  0  0  0  0  0  0  0  0999 V2000
    1.8478   -6.4639    0.0000 C   0  0  0  0  0  0  0  0  0  0  0  0
    2.0046   -4.9721    0.0000 C   0  0  0  0  0  0  0  0  0  0  0  0
    0.8899   -3.9684    0.0000 N   0  0  0  0  0  0  0  0  0  0  0  0
    1.5000   -2.5981    0.0000 N   0  0  0  0  0  0  0  0  0  0  0  0
    0.7500   -1.2990    0.0000 N   0  0  0  0  0  0  0  0  0  0  0  0
    1.5000    0.0000    0.0000 N   0  0  0  0  0  0  0  0  0  0  0  0
    0.7500    1.2990    0.0000 N   0  0  0  0  0  0  0  0  0  0  0  0
   -0.7500    1.2990    0.0000 N   0  0  0  0  0  0  0  0  0  0  0  0
   -1.5000    0.0000    0.0000 N   0  0  0  0  0  0  0  0  0  0  0  0
   -0.7500   -1.2990    0.0000 N   0  0  0  0  0  0  0  0  0  0  0  0
   -1.5000   -2.5981    0.0000 C   0  0  0  0  0  0  0  0  0  0  0  0
   -3.0000   -2.5981    0.0000 C   0  0  0  0  0  0  0  0  0  0  0  0
   -3.7500   -3.8971    0.0000 C   0  0  0  0  0  0  0  0  0  0  0  0
   -3.0000   -5.1962    0.0000 C   0  0  0  0  0  0  0  0  0  0  0  0
   -3.7500   -6.4952    0.0000 C   0  0  0  0  0  0  0  0  0  0  0  0
   -5.2500   -6.4952    0.0000 C   0  0  0  0  0  0  0  0  0  0  0  0
   -6.0000   -7.7942    0.0000 C   0  0  0  0  0  0  0  0  0  0  0  0
   -5.2500   -9.0933    0.0000 C   0  0  0  0  0  0  0  0  0  0  0  0
   -3.7500   -9.0933    0.0000 C   0  0  0  0  0  0  0  0  0  0  0  0
   -3.0000   -7.7942    0.0000 C   0  0  0  0  0  0  0  0  0  0  0  0
   -1.5000   -5.1962    0.0000 C   0  0  0  0  0  0  0  0  0  0  0  0
   -0.7500   -3.8971    0.0000 C   0  0  0  0  0  0  0  0  0  0  0  0
    2.9918   -2.7549    0.0000 C   0  0  0  0  0  0  0  0  0  0  0  0
    3.9955   -1.6402    0.0000 O   0  0  0  0  0  0  0  0  0  0  0  0
    3.3037   -4.2221    0.0000 N   0  0  0  0  0  0  0  0  0  0  0  0
  1  2  1  0
  2  3  2  0
  3  4  1  0
  4  5  1  0
  5  6  1  0
  6  7  2  0
  7  8  1  0
  8  9  2  0
  9 10  1  0
 10 11  1  0
 11 12  2  0
 12 13  1  0
 13 14  2  0
 14 15  1  0
 15 16  2  0
 16 17  1  0
 17 18  2  0
 18 19  1  0
 19 20  2  0
 14 21  1  0
 21 22  2  0
  4 23  1  0
 23 24  2  0
 23 25  1  0
 25  2  1  0
 10  5  1  0
 22 11  1  0
 20 15  1  0
M  END
>  <Title>  (322) 
idAAMJgen8

$$$$

     RDKit          2D

 25 28  0  0  0  0  0  0  0  0999 V2000
  -10.1624    4.2767    0.0000 C   0  0  0  0  0  0  0  0  0  0  0  0
   -8.9488    3.3950    0.0000 C   0  0  0  0  0  0  0  0  0  0  0  0
   -9.1056    1.9033    0.0000 C   0  0  0  0  0  0  0  0  0  0  0  0
   -7.8921    1.0216    0.0000 C   0  0  0  0  0  0  0  0  0  0  0  0
   -6.5218    1.6317    0.0000 C   0  0  0  0  0  0  0  0  0  0  0  0
   -5.3083    0.7500    0.0000 C   0  0  0  0  0  0  0  0  0  0  0  0
   -5.3083   -0.7500    0.0000 N   0  0  0  0  0  0  0  0  0  0  0  0
   -3.8817   -1.2135    0.0000 N   0  0  0  0  0  0  0  0  0  0  0  0
   -3.0000    0.0000    0.0000 N   0  0  0  0  0  0  0  0  0  0  0  0
   -3.8817    1.2135    0.0000 N   0  0  0  0  0  0  0  0  0  0  0  0
   -3.4182    2.6401    0.0000 C   0  0  0  0  0  0  0  0  0  0  0  0
   -4.2998    3.8536    0.0000 C   0  0  0  0  0  0  0  0  0  0  0  0
   -3.4182    5.0672    0.0000 N   0  0  0  0  0  0  0  0  0  0  0  0
   -1.9916    4.6036    0.0000 N   0  0  0  0  0  0  0  0  0  0  0  0
   -1.9916    3.1036    0.0000 N   0  0  0  0  0  0  0  0  0  0  0  0
   -0.7780    2.2220    0.0000 C   0  0  0  0  0  0  0  0  0  0  0  0
   -0.9348    0.7302    0.0000 C   0  0  0  0  0  0  0  0  0  0  0  0
    0.2787   -0.1515    0.0000 C   0  0  0  0  0  0  0  0  0  0  0  0
    1.6490    0.4586    0.0000 C   0  0  0  0  0  0  0  0  0  0  0  0
    2.8625   -0.4231    0.0000 C   0  0  0  0  0  0  0  0  0  0  0  0
    1.8058    1.9504    0.0000 C   0  0  0  0  0  0  0  0  0  0  0  0
    3.1761    2.5605    0.0000 O   0  0  0  0  0  0  0  0  0  0  0  0
    0.5923    2.8321    0.0000 N   0  0  0  0  0  0  0  0  0  0  0  0
   -6.3650    3.1235    0.0000 N   0  0  0  0  0  0  0  0  0  0  0  0
   -7.5785    4.0051    0.0000 C   0  0  0  0  0  0  0  0  0  0  0  0
  1  2  1  0
  2  3  2  0
  3  4  1  0
  4  5  2  0
  5  6  1  0
  6  7  2  0
  7  8  1  0
  8  9  2  0
  9 10  1  0
 10 11  1  0
 11 12  2  0
 12 13  1  0
 13 14  2  0
 14 15  1  0
 15 16  1  0
 16 17  2  0
 17 18  1  0
 18 19  2  0
 19 20  1  0
 19 21  1  0
 21 22  2  0
 21 23  1  0
  5 24  1  0
 24 25  1  0
 25  2  1  0
 10  6  1  0
 15 11  1  0
 23 16  1  0
M  END
>  <Title>  (323) 
idAAMKgen8

$$$$

     RDKit          2D

 27 30  0  0  0  0  0  0  0  0999 V2000
    3.0000    0.0000    0.0000 C   0  0  0  0  0  0  0  0  0  0  0  0
    1.5000    0.0000    0.0000 C   0  0  0  0  0  0  0  0  0  0  0  0
    0.7500   -1.2990    0.0000 C   0  0  0  0  0  0  0  0  0  0  0  0
   -0.7500   -1.2990    0.0000 C   0  0  0  0  0  0  0  0  0  0  0  0
   -1.5000    0.0000    0.0000 C   0  0  0  0  0  0  0  0  0  0  0  0
   -3.0000    0.0000    0.0000 C   0  0  0  0  0  0  0  0  0  0  0  0
   -3.8817   -1.2135    0.0000 N   0  0  0  0  0  0  0  0  0  0  0  0
   -5.3083   -0.7500    0.0000 N   0  0  0  0  0  0  0  0  0  0  0  0
   -5.3083    0.7500    0.0000 N   0  0  0  0  0  0  0  0  0  0  0  0
   -3.8817    1.2135    0.0000 N   0  0  0  0  0  0  0  0  0  0  0  0
   -3.4182    2.6401    0.0000 C   0  0  0  0  0  0  0  0  0  0  0  0
   -4.2998    3.8536    0.0000 C   0  0  0  0  0  0  0  0  0  0  0  0
   -3.4182    5.0672    0.0000 C   0  0  0  0  0  0  0  0  0  0  0  0
   -1.9916    4.6036    0.0000 C   0  0  0  0  0  0  0  0  0  0  0  0
   -0.7780    5.4853    0.0000 C   0  0  0  0  0  0  0  0  0  0  0  0
   -0.9348    6.9771    0.0000 O   0  0  0  0  0  0  0  0  0  0  0  0
    0.5923    4.8752    0.0000 N   0  0  0  0  0  0  0  0  0  0  0  0
    1.8058    5.7569    0.0000 C   0  0  0  0  0  0  0  0  0  0  0  0
    1.8058    7.2569    0.0000 N   0  0  0  0  0  0  0  0  0  0  0  0
    3.2324    7.7204    0.0000 N   0  0  0  0  0  0  0  0  0  0  0  0
    4.1141    6.5069    0.0000 N   0  0  0  0  0  0  0  0  0  0  0  0
    3.2324    5.2934    0.0000 C   0  0  0  0  0  0  0  0  0  0  0  0
    3.6959    3.8668    0.0000 O   0  0  0  0  0  0  0  0  0  0  0  0
   -1.9916    3.1036    0.0000 C   0  0  0  0  0  0  0  0  0  0  0  0
   -0.7780    2.2220    0.0000 O   0  0  0  0  0  0  0  0  0  0  0  0
   -0.7500    1.2990    0.0000 C   0  0  0  0  0  0  0  0  0  0  0  0
    0.7500    1.2990    0.0000 C   0  0  0  0  0  0  0  0  0  0  0  0
  1  2  1  0
  2  3  2  0
  3  4  1  0
  4  5  2  0
  5  6  1  0
  6  7  2  0
  7  8  1  0
  8  9  2  0
  9 10  1  0
 10 11  1  0
 11 12  2  0
 12 13  1  0
 13 14  2  0
 14 15  1  0
 15 16  2  0
 15 17  1  0
 17 18  1  0
 18 19  2  0
 19 20  1  0
 20 21  2  0
 21 22  1  0
 22 23  2  0
 14 24  1  0
 24 25  2  0
  5 26  1  0
 26 27  2  0
 27  2  1  0
 10  6  1  0
 24 11  1  0
 22 18  1  0
M  END
>  <Title>  (324) 
idAAMLgen8

$$$$

     RDKit          2D

 30 34  0  0  0  0  0  0  0  0999 V2000
    3.0000    0.0000    0.0000 C   0  0  0  0  0  0  0  0  0  0  0  0
    1.5000    0.0000    0.0000 C   0  0  0  0  0  0  0  0  0  0  0  0
    0.7500   -1.2990    0.0000 C   0  0  0  0  0  0  0  0  0  0  0  0
   -0.7500   -1.2990    0.0000 C   0  0  0  0  0  0  0  0  0  0  0  0
   -1.5000    0.0000    0.0000 C   0  0  0  0  0  0  0  0  0  0  0  0
   -3.0000    0.0000    0.0000 N   0  0  0  0  0  0  0  0  0  0  0  0
   -3.7500    1.2990    0.0000 N   0  0  0  0  0  0  0  0  0  0  0  0
   -5.2500    1.2990    0.0000 N   0  0  0  0  0  0  0  0  0  0  0  0
   -6.0000    0.0000    0.0000 N   0  0  0  0  0  0  0  0  0  0  0  0
   -5.2500   -1.2990    0.0000 N   0  0  0  0  0  0  0  0  0  0  0  0
   -3.7500   -1.2990    0.0000 N   0  0  0  0  0  0  0  0  0  0  0  0
   -3.0000   -2.5981    0.0000 C   0  0  0  0  0  0  0  0  0  0  0  0
   -3.7500   -3.8971    0.0000 C   0  0  0  0  0  0  0  0  0  0  0  0
   -3.0000   -5.1962    0.0000 C   0  0  0  0  0  0  0  0  0  0  0  0
   -1.5000   -5.1962    0.0000 C   0  0  0  0  0  0  0  0  0  0  0  0
   -0.7500   -6.4952    0.0000 C   0  0  0  0  0  0  0  0  0  0  0  0
    0.7418   -6.6520    0.0000 N   0  0  0  0  0  0  0  0  0  0  0  0
    1.0537   -8.1192    0.0000 N   0  0  0  0  0  0  0  0  0  0  0  0
   -0.2454   -8.8692    0.0000 N   0  0  0  0  0  0  0  0  0  0  0  0
   -1.3601   -7.8655    0.0000 N   0  0  0  0  0  0  0  0  0  0  0  0
   -2.8273   -8.1774    0.0000 C   0  0  0  0  0  0  0  0  0  0  0  0
   -3.8310   -7.0627    0.0000 C   0  0  0  0  0  0  0  0  0  0  0  0
   -5.2982   -7.3745    0.0000 C   0  0  0  0  0  0  0  0  0  0  0  0
   -5.7618   -8.8011    0.0000 C   0  0  0  0  0  0  0  0  0  0  0  0
   -4.7581   -9.9158    0.0000 C   0  0  0  0  0  0  0  0  0  0  0  0
   -3.2909   -9.6040    0.0000 C   0  0  0  0  0  0  0  0  0  0  0  0
   -0.7500   -3.8971    0.0000 C   0  0  0  0  0  0  0  0  0  0  0  0
   -1.5000   -2.5981    0.0000 C   0  0  0  0  0  0  0  0  0  0  0  0
   -0.7500    1.2990    0.0000 C   0  0  0  0  0  0  0  0  0  0  0  0
    0.7500    1.2990    0.0000 C   0  0  0  0  0  0  0  0  0  0  0  0
  1  2  1  0
  2  3  2  0
  3  4  1  0
  4  5  2  0
  5  6  1  0
  6  7  1  0
  7  8  2  0
  8  9  1  0
  9 10  2  0
 10 11  1  0
 11 12  1  0
 12 13  2  0
 13 14  1  0
 14 15  2  0
 15 16  1  0
 16 17  2  0
 17 18  1  0
 18 19  2  0
 19 20  1  0
 20 21  1  0
 21 22  2  0
 22 23  1  0
 23 24  2  0
 24 25  1  0
 25 26  2  0
 15 27  1  0
 27 28  2  0
  5 29  1  0
 29 30  2  0
 30  2  1  0
 11  6  1  0
 28 12  1  0
 20 16  1  0
 26 21  1  0
M  END
>  <Title>  (325) 
idAAMMgen8

$$$$

     RDKit          2D

 41 46  0  0  0  0  0  0  0  0999 V2000
    3.7500    1.2990    0.0000 O   0  0  0  0  0  0  0  0  0  0  0  0
    3.0000    0.0000    0.0000 C   0  0  0  0  0  0  0  0  0  0  0  0
    3.7500   -1.2990    0.0000 N   0  0  0  0  0  0  0  0  0  0  0  0
    5.2500   -1.2990    0.0000 O   0  0  0  0  0  0  0  0  0  0  0  0
    1.5000    0.0000    0.0000 C   0  0  0  0  0  0  0  0  0  0  0  0
    0.7500   -1.2990    0.0000 C   0  0  0  0  0  0  0  0  0  0  0  0
   -0.7500   -1.2990    0.0000 C   0  0  0  0  0  0  0  0  0  0  0  0
   -1.5000    0.0000    0.0000 C   0  0  0  0  0  0  0  0  0  0  0  0
   -3.0000    0.0000    0.0000 C   0  0  0  0  0  0  0  0  0  0  0  0
   -3.7500    1.2990    0.0000 C   0  0  0  0  0  0  0  0  0  0  0  0
   -5.2500    1.2990    0.0000 C   0  0  0  0  0  0  0  0  0  0  0  0
   -6.0000    2.5981    0.0000 C   0  0  0  0  0  0  0  0  0  0  0  0
   -7.4918    2.7549    0.0000 N   0  0  0  0  0  0  0  0  0  0  0  0
   -7.8037    4.2221    0.0000 N   0  0  0  0  0  0  0  0  0  0  0  0
   -6.5046    4.9721    0.0000 N   0  0  0  0  0  0  0  0  0  0  0  0
   -5.3899    3.9684    0.0000 N   0  0  0  0  0  0  0  0  0  0  0  0
   -3.9227    4.2803    0.0000 C   0  0  0  0  0  0  0  0  0  0  0  0
   -2.9190    3.1655    0.0000 C   0  0  0  0  0  0  0  0  0  0  0  0
   -1.4518    3.4774    0.0000 C   0  0  0  0  0  0  0  0  0  0  0  0
   -0.9882    4.9040    0.0000 C   0  0  0  0  0  0  0  0  0  0  0  0
   -1.9919    6.0187    0.0000 C   0  0  0  0  0  0  0  0  0  0  0  0
   -3.4591    5.7068    0.0000 C   0  0  0  0  0  0  0  0  0  0  0  0
   -6.0000    0.0000    0.0000 C   0  0  0  0  0  0  0  0  0  0  0  0
   -5.2500   -1.2990    0.0000 C   0  0  0  0  0  0  0  0  0  0  0  0
   -3.7500   -1.2990    0.0000 C   0  0  0  0  0  0  0  0  0  0  0  0
   -3.0000   -2.5981    0.0000 N   0  0  0  0  0  0  0  0  0  0  0  0
   -1.5000   -2.5981    0.0000 N   0  0  0  0  0  0  0  0  0  0  0  0
   -0.7500   -3.8971    0.0000 N   0  0  0  0  0  0  0  0  0  0  0  0
   -1.5000   -5.1962    0.0000 N   0  0  0  0  0  0  0  0  0  0  0  0
   -3.0000   -5.1962    0.0000 N   0  0  0  0  0  0  0  0  0  0  0  0
   -3.7500   -3.8971    0.0000 N   0  0  0  0  0  0  0  0  0  0  0  0
   -5.2500   -3.8971    0.0000 C   0  0  0  0  0  0  0  0  0  0  0  0
   -6.0000   -5.1962    0.0000 C   0  0  0  0  0  0  0  0  0  0  0  0
   -7.5000   -5.1962    0.0000 C   0  0  0  0  0  0  0  0  0  0  0  0
   -8.2500   -3.8971    0.0000 C   0  0  0  0  0  0  0  0  0  0  0  0
   -9.7500   -3.8971    0.0000 O   0  0  0  0  0  0  0  0  0  0  0  0
   -7.5000   -2.5981    0.0000 C   0  0  0  0  0  0  0  0  0  0  0  0
   -6.0000   -2.5981    0.0000 C   0  0  0  0  0  0  0  0  0  0  0  0
   -0.7500    1.2990    0.0000 C   0  0  0  0  0  0  0  0  0  0  0  0
   -1.5000    2.5981    0.0000 O   0  0  0  0  0  0  0  0  0  0  0  0
    0.7500    1.2990    0.0000 N   0  0  0  0  0  0  0  0  0  0  0  0
  1  2  2  0
  2  3  1  0
  3  4  1  0
  2  5  1  0
  5  6  2  0
  6  7  1  0
  7  8  2  0
  8  9  1  0
  9 10  2  0
 10 11  1  0
 11 12  1  0
 12 13  2  0
 13 14  1  0
 14 15  2  0
 15 16  1  0
 16 17  1  0
 17 18  2  0
 18 19  1  0
 19 20  2  0
 20 21  1  0
 21 22  2  0
 11 23  2  0
 23 24  1  0
 24 25  2  0
 25 26  1  0
 26 27  1  0
 27 28  2  0
 28 29  1  0
 29 30  2  0
 30 31  1  0
 31 32  1  0
 32 33  2  0
 33 34  1  0
 34 35  2  0
 35 36  1  0
 35 37  1  0
 37 38  2  0
  8 39  1  0
 39 40  2  0
 39 41  1  0
 41  5  1  0
 25  9  1  0
 31 26  1  0
 38 32  1  0
 16 12  1  0
 22 17  1  0
M  END
>  <Title>  (326) 
idAAMNgen8

$$$$

     RDKit          2D

 16 17  0  0  0  0  0  0  0  0999 V2000
    4.1699   -5.7394    0.0000 C   0  0  0  0  0  0  0  0  0  0  0  0
    3.2882   -4.5258    0.0000 C   0  0  0  0  0  0  0  0  0  0  0  0
    3.9990   -3.2049    0.0000 C   0  0  0  0  0  0  0  0  0  0  0  0
    3.4095   -1.8256    0.0000 C   0  0  0  0  0  0  0  0  0  0  0  0
    1.9635   -1.4266    0.0000 C   0  0  0  0  0  0  0  0  0  0  0  0
    2.4271    0.0000    0.0000 C   0  0  0  0  0  0  0  0  0  0  0  0
    1.9635    1.4266    0.0000 C   0  0  0  0  0  0  0  0  0  0  0  0
    0.7500    2.3083    0.0000 C   0  0  0  0  0  0  0  0  0  0  0  0
   -0.7500    2.3083    0.0000 C   0  0  0  0  0  0  0  0  0  0  0  0
   -1.9635    1.4266    0.0000 C   0  0  0  0  0  0  0  0  0  0  0  0
   -2.4271    0.0000    0.0000 C   0  0  0  0  0  0  0  0  0  0  0  0
   -1.9635   -1.4266    0.0000 C   0  0  0  0  0  0  0  0  0  0  0  0
   -0.7500   -2.3083    0.0000 C   0  0  0  0  0  0  0  0  0  0  0  0
    0.7500   -2.3083    0.0000 C   0  0  0  0  0  0  0  0  0  0  0  0
    0.6827   -3.8068    0.0000 C   0  0  0  0  0  0  0  0  0  0  0  0
    1.8123   -4.7937    0.0000 C   0  0  0  0  0  0  0  0  0  0  0  0
  1  2  1  0
  2  3  2  0
  3  4  1  0
  4  5  2  0
  5  6  1  0
  6  7  2  0
  7  8  1  0
  8  9  1  0
  9 10  1  0
 10 11  1  0
 11 12  2  0
 12 13  1  0
 13 14  2  0
 14 15  1  0
 15 16  1  0
 16  2  1  0
 14  5  1  0
M  END
>  <Title>  (327) 
idAAMOgen8

$$$$

     RDKit          2D

 40 45  0  0  0  0  0  0  0  0999 V2000
    3.0000    0.0000    0.0000 C   0  0  0  0  0  0  0  0  0  0  0  0
    1.5000    0.0000    0.0000 C   0  0  0  0  0  0  0  0  0  0  0  0
    0.7500   -1.2990    0.0000 C   0  0  0  0  0  0  0  0  0  0  0  0
   -0.7500   -1.2990    0.0000 C   0  0  0  0  0  0  0  0  0  0  0  0
   -1.5000    0.0000    0.0000 C   0  0  0  0  0  0  0  0  0  0  0  0
   -3.0000    0.0000    0.0000 C   0  0  0  0  0  0  0  0  0  0  0  0
   -3.8817   -1.2135    0.0000 N   0  0  0  0  0  0  0  0  0  0  0  0
   -5.3083   -0.7500    0.0000 N   0  0  0  0  0  0  0  0  0  0  0  0
   -5.3083    0.7500    0.0000 N   0  0  0  0  0  0  0  0  0  0  0  0
   -3.8817    1.2135    0.0000 N   0  0  0  0  0  0  0  0  0  0  0  0
   -3.4182    2.6401    0.0000 C   0  0  0  0  0  0  0  0  0  0  0  0
   -1.9509    2.9520    0.0000 C   0  0  0  0  0  0  0  0  0  0  0  0
   -1.4874    4.3786    0.0000 C   0  0  0  0  0  0  0  0  0  0  0  0
   -2.4911    5.4933    0.0000 C   0  0  0  0  0  0  0  0  0  0  0  0
   -2.0276    6.9199    0.0000 C   0  0  0  0  0  0  0  0  0  0  0  0
   -3.0313    8.0346    0.0000 O   0  0  0  0  0  0  0  0  0  0  0  0
   -0.5604    7.2317    0.0000 N   0  0  0  0  0  0  0  0  0  0  0  0
   -0.0968    8.6583    0.0000 C   0  0  0  0  0  0  0  0  0  0  0  0
   -0.9785    9.8718    0.0000 N   0  0  0  0  0  0  0  0  0  0  0  0
   -0.0968   11.0854    0.0000 N   0  0  0  0  0  0  0  0  0  0  0  0
    1.3298   10.6218    0.0000 N   0  0  0  0  0  0  0  0  0  0  0  0
    1.3298    9.1218    0.0000 N   0  0  0  0  0  0  0  0  0  0  0  0
    2.5433    8.2402    0.0000 C   0  0  0  0  0  0  0  0  0  0  0  0
    2.3865    6.7484    0.0000 C   0  0  0  0  0  0  0  0  0  0  0  0
    3.6000    5.8667    0.0000 C   0  0  0  0  0  0  0  0  0  0  0  0
    4.9703    6.4768    0.0000 C   0  0  0  0  0  0  0  0  0  0  0  0
    5.1271    7.9686    0.0000 C   0  0  0  0  0  0  0  0  0  0  0  0
    3.9136    8.8503    0.0000 C   0  0  0  0  0  0  0  0  0  0  0  0
   -3.9583    5.1814    0.0000 C   0  0  0  0  0  0  0  0  0  0  0  0
   -4.4218    3.7548    0.0000 C   0  0  0  0  0  0  0  0  0  0  0  0
   -5.8891    3.4430    0.0000 C   0  0  0  0  0  0  0  0  0  0  0  0
   -6.8928    4.5577    0.0000 C   0  0  0  0  0  0  0  0  0  0  0  0
   -8.3600    4.2458    0.0000 C   0  0  0  0  0  0  0  0  0  0  0  0
   -8.8235    2.8192    0.0000 C   0  0  0  0  0  0  0  0  0  0  0  0
  -10.2907    2.5074    0.0000 C   0  0  0  0  0  0  0  0  0  0  0  0
   -7.8198    1.7045    0.0000 C   0  0  0  0  0  0  0  0  0  0  0  0
   -8.2833    0.2779    0.0000 O   0  0  0  0  0  0  0  0  0  0  0  0
   -6.3526    2.0164    0.0000 N   0  0  0  0  0  0  0  0  0  0  0  0
   -0.7500    1.2990    0.0000 N   0  0  0  0  0  0  0  0  0  0  0  0
    0.7500    1.2990    0.0000 N   0  0  0  0  0  0  0  0  0  0  0  0
  1  2  1  0
  2  3  2  0
  3  4  1  0
  4  5  2  0
  5  6  1  0
  6  7  2  0
  7  8  1  0
  8  9  2  0
  9 10  1  0
 10 11  1  0
 11 12  2  0
 12 13  1  0
 13 14  2  0
 14 15  1  0
 15 16  2  0
 15 17  1  0
 17 18  1  0
 18 19  2  0
 19 20  1  0
 20 21  2  0
 21 22  1  0
 22 23  1  0
 23 24  2  0
 24 25  1  0
 25 26  2  0
 26 27  1  0
 27 28  2  0
 14 29  1  0
 29 30  2  0
 30 31  1  0
 31 32  2  0
 32 33  1  0
 33 34  2  0
 34 35  1  0
 34 36  1  0
 36 37  2  0
 36 38  1  0
  5 39  1  0
 39 40  2  0
 40  2  1  0
 10  6  1  0
 30 11  1  0
 38 31  1  0
 22 18  1  0
 28 23  1  0
M  END
>  <Title>  (328) 
idAAMPgen8

$$$$

     RDKit          2D

 37 42  0  0  0  0  0  0  0  0999 V2000
   -3.5279   -5.7583    0.0000 C   0  0  0  0  0  0  0  0  0  0  0  0
   -4.1312   -4.3850    0.0000 C   0  0  0  0  0  0  0  0  0  0  0  0
   -3.1556   -3.2456    0.0000 C   0  0  0  0  0  0  0  0  0  0  0  0
   -3.4381   -1.7724    0.0000 C   0  0  0  0  0  0  0  0  0  0  0  0
   -4.7661   -1.0748    0.0000 C   0  0  0  0  0  0  0  0  0  0  0  0
   -4.7137    0.4242    0.0000 C   0  0  0  0  0  0  0  0  0  0  0  0
   -5.8957    1.3477    0.0000 N   0  0  0  0  0  0  0  0  0  0  0  0
   -5.3827    2.7573    0.0000 N   0  0  0  0  0  0  0  0  0  0  0  0
   -3.8836    2.7049    0.0000 N   0  0  0  0  0  0  0  0  0  0  0  0
   -3.4701    1.2630    0.0000 N   0  0  0  0  0  0  0  0  0  0  0  0
   -2.0606    0.7500    0.0000 C   0  0  0  0  0  0  0  0  0  0  0  0
   -1.0964    1.8991    0.0000 C   0  0  0  0  0  0  0  0  0  0  0  0
    0.3808    2.1595    0.0000 C   0  0  0  0  0  0  0  0  0  0  0  0
    1.6798    1.4095    0.0000 C   0  0  0  0  0  0  0  0  0  0  0  0
    0.4067    0.6698    0.0000 C   0  0  0  0  0  0  0  0  0  0  0  0
    0.4558    0.6636    0.0000 N   0  0  0  0  0  0  0  0  0  0  0  0
   -0.8026   -0.0629    0.0000 N   0  0  0  0  0  0  0  0  0  0  0  0
   -0.7834   -0.0173    0.0000 N   0  0  0  0  0  0  0  0  0  0  0  0
   -2.0606   -0.7500    0.0000 N   0  0  0  0  0  0  0  0  0  0  0  0
   -0.7616   -1.5000    0.0000 C   0  0  0  0  0  0  0  0  0  0  0  0
   -1.2746   -2.9095    0.0000 C   0  0  0  0  0  0  0  0  0  0  0  0
   -0.3104   -4.0586    0.0000 C   0  0  0  0  0  0  0  0  0  0  0  0
    1.1668   -3.7981    0.0000 C   0  0  0  0  0  0  0  0  0  0  0  0
    2.1310   -4.9472    0.0000 C   0  0  0  0  0  0  0  0  0  0  0  0
    1.6179   -6.3567    0.0000 C   0  0  0  0  0  0  0  0  0  0  0  0
    2.5821   -7.5058    0.0000 C   0  0  0  0  0  0  0  0  0  0  0  0
    4.0593   -7.2453    0.0000 C   0  0  0  0  0  0  0  0  0  0  0  0
    4.5724   -5.8358    0.0000 C   0  0  0  0  0  0  0  0  0  0  0  0
    3.6082   -4.6867    0.0000 C   0  0  0  0  0  0  0  0  0  0  0  0
    1.6798   -2.3886    0.0000 C   0  0  0  0  0  0  0  0  0  0  0  0
    0.7156   -1.2395    0.0000 C   0  0  0  0  0  0  0  0  0  0  0  0
    1.6798   -0.0905    0.0000 C   0  0  0  0  0  0  0  0  0  0  0  0
    3.0894   -0.6035    0.0000 O   0  0  0  0  0  0  0  0  0  0  0  0
   -6.1394   -1.6781    0.0000 N   0  0  0  0  0  0  0  0  0  0  0  0
   -6.5240   -3.1280    0.0000 C   0  0  0  0  0  0  0  0  0  0  0  0
   -7.9972   -3.4105    0.0000 O   0  0  0  0  0  0  0  0  0  0  0  0
   -5.6303   -4.3326    0.0000 C   0  0  0  0  0  0  0  0  0  0  0  0
  1  2  1  0
  2  3  2  0
  3  4  1  0
  4  5  2  0
  5  6  1  0
  6  7  2  0
  7  8  1  0
  8  9  2  0
  9 10  1  0
 10 11  1  0
 11 12  2  0
 12 13  1  0
 13 14  2  0
 14 15  1  0
 15 16  1  0
 16 17  1  0
 17 18  2  0
 18 19  1  0
 19 20  1  0
 20 21  2  0
 21 22  1  0
 22 23  2  0
 23 24  1  0
 24 25  2  0
 25 26  1  0
 26 27  2  0
 27 28  1  0
 28 29  2  0
 23 30  1  0
 30 31  2  0
 31 32  1  0
 32 33  2  0
  5 34  1  0
 34 35  1  0
 35 36  2  0
 35 37  1  0
 37  2  1  0
 10  6  1  0
 19 11  1  0
 31 20  1  0
 32 14  1  0
 29 24  1  0
M  END
>  <Title>  (329) 
idAAMQgen8

$$$$

     RDKit          2D

 16 16  0  0  0  0  0  0  0  0999 V2000
    5.6205   -1.2990    0.0000 C   0  0  0  0  0  0  0  0  0  0  0  0
    4.8705    0.0000    0.0000 N   0  0  0  0  0  0  0  0  0  0  0  0
    3.3705    0.0000    0.0000 C   0  0  0  0  0  0  0  0  0  0  0  0
    3.0367   -1.4624    0.0000 C   0  0  0  0  0  0  0  0  0  0  0  0
    2.1015   -2.6351    0.0000 C   0  0  0  0  0  0  0  0  0  0  0  0
    0.7500   -3.2860    0.0000 C   0  0  0  0  0  0  0  0  0  0  0  0
   -0.7500   -3.2860    0.0000 C   0  0  0  0  0  0  0  0  0  0  0  0
   -2.1015   -2.6351    0.0000 C   0  0  0  0  0  0  0  0  0  0  0  0
   -3.0367   -1.4624    0.0000 C   0  0  0  0  0  0  0  0  0  0  0  0
   -3.3705    0.0000    0.0000 C   0  0  0  0  0  0  0  0  0  0  0  0
   -3.0367    1.4624    0.0000 C   0  0  0  0  0  0  0  0  0  0  0  0
   -2.1015    2.6351    0.0000 C   0  0  0  0  0  0  0  0  0  0  0  0
   -0.7500    3.2860    0.0000 C   0  0  0  0  0  0  0  0  0  0  0  0
    0.7500    3.2860    0.0000 C   0  0  0  0  0  0  0  0  0  0  0  0
    2.1015    2.6351    0.0000 C   0  0  0  0  0  0  0  0  0  0  0  0
    3.0367    1.4624    0.0000 C   0  0  0  0  0  0  0  0  0  0  0  0
  1  2  1  0
  2  3  1  0
  3  4  2  0
  4  5  1  0
  5  6  2  0
  6  7  1  0
  7  8  2  0
  8  9  1  0
  9 10  2  0
 10 11  1  0
 11 12  2  0
 12 13  1  0
 13 14  2  0
 14 15  1  0
 15 16  2  0
 16  3  1  0
M  END
>  <Title>  (330) 
idAAMRgen8

$$$$

     RDKit          2D

 39 44  0  0  0  0  0  0  0  0999 V2000
   -7.0025    9.9019    0.0000 C   0  0  0  0  0  0  0  0  0  0  0  0
   -5.6321   10.5120    0.0000 C   0  0  0  0  0  0  0  0  0  0  0  0
   -4.4186    9.6303    0.0000 C   0  0  0  0  0  0  0  0  0  0  0  0
   -4.5754    8.1386    0.0000 C   0  0  0  0  0  0  0  0  0  0  0  0
   -3.3619    7.2569    0.0000 C   0  0  0  0  0  0  0  0  0  0  0  0
   -1.9916    7.8670    0.0000 C   0  0  0  0  0  0  0  0  0  0  0  0
   -0.7780    6.9853    0.0000 C   0  0  0  0  0  0  0  0  0  0  0  0
    0.6485    7.4488    0.0000 N   0  0  0  0  0  0  0  0  0  0  0  0
    1.5302    6.2353    0.0000 N   0  0  0  0  0  0  0  0  0  0  0  0
    0.6485    5.0218    0.0000 N   0  0  0  0  0  0  0  0  0  0  0  0
   -0.7780    5.4853    0.0000 N   0  0  0  0  0  0  0  0  0  0  0  0
   -1.9916    4.6036    0.0000 C   0  0  0  0  0  0  0  0  0  0  0  0
   -3.4182    5.0672    0.0000 C   0  0  0  0  0  0  0  0  0  0  0  0
   -4.2998    3.8536    0.0000 N   0  0  0  0  0  0  0  0  0  0  0  0
   -3.4182    2.6401    0.0000 N   0  0  0  0  0  0  0  0  0  0  0  0
   -1.9916    3.1036    0.0000 N   0  0  0  0  0  0  0  0  0  0  0  0
   -0.7780    2.2220    0.0000 C   0  0  0  0  0  0  0  0  0  0  0  0
   -0.9348    0.7302    0.0000 C   0  0  0  0  0  0  0  0  0  0  0  0
    0.2787   -0.1515    0.0000 C   0  0  0  0  0  0  0  0  0  0  0  0
    1.6490    0.4586    0.0000 C   0  0  0  0  0  0  0  0  0  0  0  0
    2.8625   -0.4231    0.0000 C   0  0  0  0  0  0  0  0  0  0  0  0
    2.7057   -1.9149    0.0000 O   0  0  0  0  0  0  0  0  0  0  0  0
    4.2329    0.1870    0.0000 N   0  0  0  0  0  0  0  0  0  0  0  0
    5.4464   -0.6946    0.0000 C   0  0  0  0  0  0  0  0  0  0  0  0
    5.4464   -2.1946    0.0000 N   0  0  0  0  0  0  0  0  0  0  0  0
    6.8730   -2.6582    0.0000 N   0  0  0  0  0  0  0  0  0  0  0  0
    7.7546   -1.4446    0.0000 N   0  0  0  0  0  0  0  0  0  0  0  0
    6.8730   -0.2311    0.0000 N   0  0  0  0  0  0  0  0  0  0  0  0
    7.3365    1.1955    0.0000 C   0  0  0  0  0  0  0  0  0  0  0  0
    8.8037    1.5073    0.0000 C   0  0  0  0  0  0  0  0  0  0  0  0
    9.2672    2.9339    0.0000 C   0  0  0  0  0  0  0  0  0  0  0  0
    8.2635    4.0486    0.0000 C   0  0  0  0  0  0  0  0  0  0  0  0
    6.7963    3.7368    0.0000 C   0  0  0  0  0  0  0  0  0  0  0  0
    6.3328    2.3102    0.0000 C   0  0  0  0  0  0  0  0  0  0  0  0
    1.8058    1.9504    0.0000 C   0  0  0  0  0  0  0  0  0  0  0  0
    0.5923    2.8321    0.0000 C   0  0  0  0  0  0  0  0  0  0  0  0
   -1.8348    9.3588    0.0000 C   0  0  0  0  0  0  0  0  0  0  0  0
   -0.4645    9.9689    0.0000 O   0  0  0  0  0  0  0  0  0  0  0  0
   -3.0483   10.2405    0.0000 N   0  0  0  0  0  0  0  0  0  0  0  0
  1  2  1  0
  2  3  1  0
  3  4  2  0
  4  5  1  0
  5  6  2  0
  6  7  1  0
  7  8  2  0
  8  9  1  0
  9 10  2  0
 10 11  1  0
 11 12  1  0
 12 13  2  0
 13 14  1  0
 14 15  2  0
 15 16  1  0
 16 17  1  0
 17 18  2  0
 18 19  1  0
 19 20  2  0
 20 21  1  0
 21 22  2  0
 21 23  1  0
 23 24  1  0
 24 25  2  0
 25 26  1  0
 26 27  2  0
 27 28  1  0
 28 29  1  0
 29 30  2  0
 30 31  1  0
 31 32  2  0
 32 33  1  0
 33 34  2  0
 20 35  1  0
 35 36  2  0
  6 37  1  0
 37 38  2  0
 37 39  1  0
 39  3  1  0
 11  7  1  0
 16 12  1  0
 36 17  1  0
 28 24  1  0
 34 29  1  0
M  END
>  <Title>  (331) 
idAAMSgen8

$$$$

     RDKit          2D

 48 55  0  0  0  0  0  0  0  0999 V2000
   -1.5000  -10.3923    0.0000 O   0  0  0  0  0  0  0  0  0  0  0  0
   -0.7500   -9.0933    0.0000 C   0  0  0  0  0  0  0  0  0  0  0  0
   -1.5000   -7.7942    0.0000 C   0  0  0  0  0  0  0  0  0  0  0  0
   -0.7500   -6.4952    0.0000 C   0  0  0  0  0  0  0  0  0  0  0  0
    0.7500   -6.4952    0.0000 C   0  0  0  0  0  0  0  0  0  0  0  0
    1.5000   -5.1962    0.0000 N   0  0  0  0  0  0  0  0  0  0  0  0
    3.0000   -5.1962    0.0000 N   0  0  0  0  0  0  0  0  0  0  0  0
    3.7500   -3.8971    0.0000 N   0  0  0  0  0  0  0  0  0  0  0  0
    3.0000   -2.5981    0.0000 N   0  0  0  0  0  0  0  0  0  0  0  0
    1.5000   -2.5981    0.0000 N   0  0  0  0  0  0  0  0  0  0  0  0
    0.7500   -3.8971    0.0000 N   0  0  0  0  0  0  0  0  0  0  0  0
   -0.7500   -3.8971    0.0000 C   0  0  0  0  0  0  0  0  0  0  0  0
   -1.5000   -5.1962    0.0000 C   0  0  0  0  0  0  0  0  0  0  0  0
   -3.0000   -5.1962    0.0000 C   0  0  0  0  0  0  0  0  0  0  0  0
   -3.7500   -3.8971    0.0000 C   0  0  0  0  0  0  0  0  0  0  0  0
   -3.0000   -2.5981    0.0000 C   0  0  0  0  0  0  0  0  0  0  0  0
   -1.5000   -2.5981    0.0000 C   0  0  0  0  0  0  0  0  0  0  0  0
   -0.7500   -1.2990    0.0000 N   0  0  0  0  0  0  0  0  0  0  0  0
    0.7500   -1.2990    0.0000 N   0  0  0  0  0  0  0  0  0  0  0  0
    1.5000   -0.0000    0.0000 N   0  0  0  0  0  0  0  0  0  0  0  0
    0.7500    1.2990    0.0000 N   0  0  0  0  0  0  0  0  0  0  0  0
   -0.7500    1.2990    0.0000 N   0  0  0  0  0  0  0  0  0  0  0  0
   -1.5000   -0.0000    0.0000 N   0  0  0  0  0  0  0  0  0  0  0  0
   -3.0000    0.0000    0.0000 C   0  0  0  0  0  0  0  0  0  0  0  0
   -3.7500    1.2990    0.0000 C   0  0  0  0  0  0  0  0  0  0  0  0
   -5.2500    1.2990    0.0000 C   0  0  0  0  0  0  0  0  0  0  0  0
   -6.0000    0.0000    0.0000 C   0  0  0  0  0  0  0  0  0  0  0  0
   -7.5000    0.0000    0.0000 C   0  0  0  0  0  0  0  0  0  0  0  0
   -8.3817   -1.2135    0.0000 N   0  0  0  0  0  0  0  0  0  0  0  0
   -9.8083   -0.7500    0.0000 N   0  0  0  0  0  0  0  0  0  0  0  0
   -9.8083    0.7500    0.0000 N   0  0  0  0  0  0  0  0  0  0  0  0
   -8.3817    1.2135    0.0000 N   0  0  0  0  0  0  0  0  0  0  0  0
   -7.9182    2.6401    0.0000 C   0  0  0  0  0  0  0  0  0  0  0  0
   -6.4509    2.9520    0.0000 C   0  0  0  0  0  0  0  0  0  0  0  0
   -5.9874    4.3786    0.0000 C   0  0  0  0  0  0  0  0  0  0  0  0
   -6.9911    5.4933    0.0000 C   0  0  0  0  0  0  0  0  0  0  0  0
   -8.4583    5.1814    0.0000 C   0  0  0  0  0  0  0  0  0  0  0  0
   -8.9218    3.7548    0.0000 C   0  0  0  0  0  0  0  0  0  0  0  0
  -10.3891    3.4430    0.0000 C   0  0  0  0  0  0  0  0  0  0  0  0
  -11.3928    4.5577    0.0000 C   0  0  0  0  0  0  0  0  0  0  0  0
  -12.8600    4.2458    0.0000 C   0  0  0  0  0  0  0  0  0  0  0  0
  -13.3235    2.8192    0.0000 C   0  0  0  0  0  0  0  0  0  0  0  0
  -12.3198    1.7045    0.0000 C   0  0  0  0  0  0  0  0  0  0  0  0
  -10.8526    2.0164    0.0000 C   0  0  0  0  0  0  0  0  0  0  0  0
   -5.2500   -1.2990    0.0000 C   0  0  0  0  0  0  0  0  0  0  0  0
   -3.7500   -1.2990    0.0000 C   0  0  0  0  0  0  0  0  0  0  0  0
    1.5000   -7.7942    0.0000 C   0  0  0  0  0  0  0  0  0  0  0  0
    0.7500   -9.0933    0.0000 C   0  0  0  0  0  0  0  0  0  0  0  0
  1  2  1  0
  2  3  2  0
  3  4  1  0
  4  5  2  0
  5  6  1  0
  6  7  1  0
  7  8  2  0
  8  9  1  0
  9 10  2  0
 10 11  1  0
 11 12  1  0
 12 13  2  0
 13 14  1  0
 14 15  2  0
 15 16  1  0
 16 17  2  0
 17 18  1  0
 18 19  1  0
 19 20  2  0
 20 21  1  0
 21 22  2  0
 22 23  1  0
 23 24  1  0
 24 25  2  0
 25 26  1  0
 26 27  2  0
 27 28  1  0
 28 29  2  0
 29 30  1  0
 30 31  2  0
 31 32  1  0
 32 33  1  0
 33 34  2  0
 34 35  1  0
 35 36  2  0
 36 37  1  0
 37 38  2  0
 38 39  1  0
 39 40  2  0
 40 41  1  0
 41 42  2  0
 42 43  1  0
 43 44  2  0
 27 45  1  0
 45 46  2  0
  5 47  1  0
 47 48  2  0
 48  2  1  0
 11  6  1  0
 17 12  1  0
 23 18  1  0
 46 24  1  0
 32 28  1  0
 38 33  1  0
 44 39  1  0
M  END
>  <Title>  (332) 
idAAMTgen8

$$$$

     RDKit          2D

 36 41  0  0  0  0  0  0  0  0999 V2000
    3.7500    1.2990    0.0000 C   0  0  0  0  0  0  0  0  0  0  0  0
    3.0000    0.0000    0.0000 O   0  0  0  0  0  0  0  0  0  0  0  0
    1.5000    0.0000    0.0000 C   0  0  0  0  0  0  0  0  0  0  0  0
    0.7500    1.2990    0.0000 C   0  0  0  0  0  0  0  0  0  0  0  0
   -0.7500    1.2990    0.0000 C   0  0  0  0  0  0  0  0  0  0  0  0
   -1.5000    0.0000    0.0000 C   0  0  0  0  0  0  0  0  0  0  0  0
   -3.0000    0.0000    0.0000 C   0  0  0  0  0  0  0  0  0  0  0  0
   -3.8817   -1.2135    0.0000 N   0  0  0  0  0  0  0  0  0  0  0  0
   -5.3083   -0.7500    0.0000 N   0  0  0  0  0  0  0  0  0  0  0  0
   -5.3083    0.7500    0.0000 N   0  0  0  0  0  0  0  0  0  0  0  0
   -3.8817    1.2135    0.0000 N   0  0  0  0  0  0  0  0  0  0  0  0
   -3.4182    2.6401    0.0000 C   0  0  0  0  0  0  0  0  0  0  0  0
   -4.2998    3.8536    0.0000 C   0  0  0  0  0  0  0  0  0  0  0  0
   -3.4182    5.0672    0.0000 C   0  0  0  0  0  0  0  0  0  0  0  0
   -1.9916    4.6036    0.0000 C   0  0  0  0  0  0  0  0  0  0  0  0
   -0.7780    5.4853    0.0000 C   0  0  0  0  0  0  0  0  0  0  0  0
    0.6485    5.0218    0.0000 N   0  0  0  0  0  0  0  0  0  0  0  0
    1.5302    6.2353    0.0000 N   0  0  0  0  0  0  0  0  0  0  0  0
    0.6485    7.4488    0.0000 N   0  0  0  0  0  0  0  0  0  0  0  0
   -0.7780    6.9853    0.0000 N   0  0  0  0  0  0  0  0  0  0  0  0
   -1.9916    7.8670    0.0000 C   0  0  0  0  0  0  0  0  0  0  0  0
   -3.4182    7.4035    0.0000 N   0  0  0  0  0  0  0  0  0  0  0  0
   -4.2998    8.6170    0.0000 N   0  0  0  0  0  0  0  0  0  0  0  0
   -3.4182    9.8305    0.0000 N   0  0  0  0  0  0  0  0  0  0  0  0
   -1.9916    9.3670    0.0000 N   0  0  0  0  0  0  0  0  0  0  0  0
   -0.7780   10.2487    0.0000 C   0  0  0  0  0  0  0  0  0  0  0  0
   -0.9348   11.7405    0.0000 C   0  0  0  0  0  0  0  0  0  0  0  0
    0.2787   12.6221    0.0000 C   0  0  0  0  0  0  0  0  0  0  0  0
    1.6490   12.0120    0.0000 C   0  0  0  0  0  0  0  0  0  0  0  0
    1.8058   10.5202    0.0000 C   0  0  0  0  0  0  0  0  0  0  0  0
    0.5923    9.6386    0.0000 C   0  0  0  0  0  0  0  0  0  0  0  0
   -1.9916    3.1036    0.0000 C   0  0  0  0  0  0  0  0  0  0  0  0
   -0.7780    2.2220    0.0000 O   0  0  0  0  0  0  0  0  0  0  0  0
   -0.7500   -1.2990    0.0000 N   0  0  0  0  0  0  0  0  0  0  0  0
    0.7500   -1.2990    0.0000 C   0  0  0  0  0  0  0  0  0  0  0  0
    1.5000   -2.5981    0.0000 O   0  0  0  0  0  0  0  0  0  0  0  0
  1  2  1  0
  2  3  1  0
  3  4  2  0
  4  5  1  0
  5  6  2  0
  6  7  1  0
  7  8  2  0
  8  9  1  0
  9 10  2  0
 10 11  1  0
 11 12  1  0
 12 13  2  0
 13 14  1  0
 14 15  2  0
 15 16  1  0
 16 17  2  0
 17 18  1  0
 18 19  2  0
 19 20  1  0
 20 21  1  0
 21 22  2  0
 22 23  1  0
 23 24  2  0
 24 25  1  0
 25 26  1  0
 26 27  2  0
 27 28  1  0
 28 29  2  0
 29 30  1  0
 30 31  2  0
 15 32  1  0
 32 33  2  0
  6 34  1  0
 34 35  1  0
 35 36  2  0
 35  3  1  0
 11  7  1  0
 32 12  1  0
 20 16  1  0
 25 21  1  0
 31 26  1  0
M  END
>  <Title>  (333) 
idAAMUgen8

$$$$

     RDKit          2D

 49 56  0  0  0  0  0  0  0  0999 V2000
    0.4276    6.3655    0.0000 C   0  0  0  0  0  0  0  0  0  0  0  0
   -0.1343    4.9747    0.0000 C   0  0  0  0  0  0  0  0  0  0  0  0
    0.9804    3.9710    0.0000 C   0  0  0  0  0  0  0  0  0  0  0  0
    1.1892    2.4856    0.0000 C   0  0  0  0  0  0  0  0  0  0  0  0
    0.3943    1.2135    0.0000 C   0  0  0  0  0  0  0  0  0  0  0  0
    1.2760    0.0000    0.0000 C   0  0  0  0  0  0  0  0  0  0  0  0
    0.3943   -1.2135    0.0000 C   0  0  0  0  0  0  0  0  0  0  0  0
   -1.0323   -0.7500    0.0000 C   0  0  0  0  0  0  0  0  0  0  0  0
   -1.0323    0.7500    0.0000 C   0  0  0  0  0  0  0  0  0  0  0  0
   -2.4231    1.3119    0.0000 C   0  0  0  0  0  0  0  0  0  0  0  0
   -3.4268    0.1972    0.0000 C   0  0  0  0  0  0  0  0  0  0  0  0
   -3.1149   -1.2700    0.0000 C   0  0  0  0  0  0  0  0  0  0  0  0
   -4.4139   -2.0200    0.0000 N   0  0  0  0  0  0  0  0  0  0  0  0
   -5.5286   -1.0163    0.0000 N   0  0  0  0  0  0  0  0  0  0  0  0
   -4.9185    0.3540    0.0000 N   0  0  0  0  0  0  0  0  0  0  0  0
   -5.6685    1.6530    0.0000 C   0  0  0  0  0  0  0  0  0  0  0  0
   -4.9185    2.9521    0.0000 C   0  0  0  0  0  0  0  0  0  0  0  0
   -5.6685    4.2511    0.0000 C   0  0  0  0  0  0  0  0  0  0  0  0
   -7.1685    4.2511    0.0000 C   0  0  0  0  0  0  0  0  0  0  0  0
   -7.9185    2.9521    0.0000 C   0  0  0  0  0  0  0  0  0  0  0  0
   -7.1685    1.6530    0.0000 C   0  0  0  0  0  0  0  0  0  0  0  0
   -7.9185    0.3540    0.0000 C   0  0  0  0  0  0  0  0  0  0  0  0
   -7.3084   -1.0163    0.0000 C   0  0  0  0  0  0  0  0  0  0  0  0
   -8.4232   -2.0200    0.0000 N   0  0  0  0  0  0  0  0  0  0  0  0
   -9.7222   -1.2700    0.0000 N   0  0  0  0  0  0  0  0  0  0  0  0
   -9.4103    0.1972    0.0000 N   0  0  0  0  0  0  0  0  0  0  0  0
  -10.4140    1.3119    0.0000 C   0  0  0  0  0  0  0  0  0  0  0  0
  -11.9058    1.1551    0.0000 C   0  0  0  0  0  0  0  0  0  0  0  0
  -12.5159    2.5254    0.0000 C   0  0  0  0  0  0  0  0  0  0  0  0
  -11.4012    3.5291    0.0000 C   0  0  0  0  0  0  0  0  0  0  0  0
  -11.5580    5.0209    0.0000 C   0  0  0  0  0  0  0  0  0  0  0  0
  -10.4433    6.0246    0.0000 N   0  0  0  0  0  0  0  0  0  0  0  0
  -11.0534    7.3949    0.0000 N   0  0  0  0  0  0  0  0  0  0  0  0
  -12.5452    7.2381    0.0000 N   0  0  0  0  0  0  0  0  0  0  0  0
  -12.8570    5.7709    0.0000 N   0  0  0  0  0  0  0  0  0  0  0  0
  -14.2273    5.1608    0.0000 C   0  0  0  0  0  0  0  0  0  0  0  0
  -14.3841    3.6690    0.0000 C   0  0  0  0  0  0  0  0  0  0  0  0
  -15.7545    3.0589    0.0000 C   0  0  0  0  0  0  0  0  0  0  0  0
  -16.9680    3.9406    0.0000 C   0  0  0  0  0  0  0  0  0  0  0  0
  -18.3383    3.3305    0.0000 C   0  0  0  0  0  0  0  0  0  0  0  0
  -16.8112    5.4324    0.0000 N   0  0  0  0  0  0  0  0  0  0  0  0
  -15.4409    6.0425    0.0000 C   0  0  0  0  0  0  0  0  0  0  0  0
  -15.2841    7.5343    0.0000 O   0  0  0  0  0  0  0  0  0  0  0  0
  -10.1022    2.7791    0.0000 C   0  0  0  0  0  0  0  0  0  0  0  0
   -8.7318    3.3892    0.0000 O   0  0  0  0  0  0  0  0  0  0  0  0
   -3.1273    2.6363    0.0000 N   0  0  0  0  0  0  0  0  0  0  0  0
   -2.8154    4.1036    0.0000 C   0  0  0  0  0  0  0  0  0  0  0  0
   -4.0875    4.8984    0.0000 O   0  0  0  0  0  0  0  0  0  0  0  0
   -1.6334    5.0270    0.0000 N   0  0  0  0  0  0  0  0  0  0  0  0
  1  2  1  0
  2  3  2  0
  3  4  1  0
  4  5  2  0
  5  6  1  0
  6  7  2  0
  7  8  1  0
  8  9  2  0
  9 10  1  0
 10 11  1  0
 11 12  2  0
 12 13  1  0
 13 14  2  0
 14 15  1  0
 15 16  1  0
 16 17  1  0
 17 18  1  0
 18 19  1  0
 19 20  1  0
 20 21  1  0
 21 22  1  0
 22 23  2  0
 23 24  1  0
 24 25  2  0
 25 26  1  0
 26 27  1  0
 27 28  2  0
 28 29  1  0
 29 30  2  0
 30 31  1  0
 31 32  2  0
 32 33  1  0
 33 34  2  0
 34 35  1  0
 35 36  1  0
 36 37  2  0
 37 38  1  0
 38 39  2  0
 39 40  1  0
 39 41  1  0
 41 42  1  0
 42 43  2  0
 30 44  1  0
 44 45  2  0
 10 46  1  0
 46 47  1  0
 47 48  2  0
 47 49  1  0
 49  2  1  0
  9  5  1  0
 15 11  1  0
 21 16  1  0
 26 22  1  0
 44 27  1  0
 35 31  1  0
 42 36  1  0
M  END
>  <Title>  (334) 
idAAMVgen8

$$$$

     RDKit          2D

 53 61  0  0  0  0  0  0  0  0999 V2000
    2.6789   -0.2940    0.0000 O   0  0  0  0  0  0  0  0  0  0  0  0
    1.5000    0.0000    0.0000 C   0  0  0  0  0  0  0  0  0  0  0  0
    0.7500   -1.2990    0.0000 C   0  0  0  0  0  0  0  0  0  0  0  0
   -0.7500   -1.2990    0.0000 N   0  0  0  0  0  0  0  0  0  0  0  0
   -1.5000    0.0000    0.0000 N   0  0  0  0  0  0  0  0  0  0  0  0
   -0.7500    1.2990    0.0000 N   0  0  0  0  0  0  0  0  0  0  0  0
    0.7500    1.2990    0.0000 N   0  0  0  0  0  0  0  0  0  0  0  0
    2.2124    1.6328    0.0000 C   0  0  0  0  0  0  0  0  0  0  0  0
    2.5462    3.0952    0.0000 N   0  0  0  0  0  0  0  0  0  0  0  0
    1.5593    4.2248    0.0000 N   0  0  0  0  0  0  0  0  0  0  0  0
    2.3286    5.5125    0.0000 N   0  0  0  0  0  0  0  0  0  0  0  0
    3.7910    5.1787    0.0000 N   0  0  0  0  0  0  0  0  0  0  0  0
    3.9255    3.6847    0.0000 C   0  0  0  0  0  0  0  0  0  0  0  0
    5.2131    2.9154    0.0000 C   0  0  0  0  0  0  0  0  0  0  0  0
    5.1907    1.4156    0.0000 C   0  0  0  0  0  0  0  0  0  0  0  0
    6.4784    0.6462    0.0000 C   0  0  0  0  0  0  0  0  0  0  0  0
    7.7885    1.3767    0.0000 C   0  0  0  0  0  0  0  0  0  0  0  0
    9.0762    0.6074    0.0000 N   0  0  0  0  0  0  0  0  0  0  0  0
   10.3280    1.4337    0.0000 N   0  0  0  0  0  0  0  0  0  0  0  0
   11.7546    0.9702    0.0000 N   0  0  0  0  0  0  0  0  0  0  0  0
   12.2817   -0.4342    0.0000 N   0  0  0  0  0  0  0  0  0  0  0  0
   11.5123   -1.7219    0.0000 C   0  0  0  0  0  0  0  0  0  0  0  0
   10.0259   -1.9232    0.0000 C   0  0  0  0  0  0  0  0  0  0  0  0
    8.9417   -0.8866    0.0000 C   0  0  0  0  0  0  0  0  0  0  0  0
    7.5373   -1.4137    0.0000 N   0  0  0  0  0  0  0  0  0  0  0  0
    6.2855   -0.5873    0.0000 N   0  0  0  0  0  0  0  0  0  0  0  0
    5.1127   -1.5226    0.0000 N   0  0  0  0  0  0  0  0  0  0  0  0
    5.6398   -2.9269    0.0000 N   0  0  0  0  0  0  0  0  0  0  0  0
    7.1383   -2.8596    0.0000 C   0  0  0  0  0  0  0  0  0  0  0  0
    8.0735   -4.0324    0.0000 C   0  0  0  0  0  0  0  0  0  0  0  0
    7.5255   -5.4287    0.0000 C   0  0  0  0  0  0  0  0  0  0  0  0
    8.4607   -6.6014    0.0000 C   0  0  0  0  0  0  0  0  0  0  0  0
    7.9127   -7.9977    0.0000 C   0  0  0  0  0  0  0  0  0  0  0  0
    6.4295   -8.2213    0.0000 C   0  0  0  0  0  0  0  0  0  0  0  0
    5.8815   -9.6176    0.0000 O   0  0  0  0  0  0  0  0  0  0  0  0
    5.4943   -7.0485    0.0000 C   0  0  0  0  0  0  0  0  0  0  0  0
    6.0423   -5.6522    0.0000 C   0  0  0  0  0  0  0  0  0  0  0  0
    7.8109    2.8765    0.0000 C   0  0  0  0  0  0  0  0  0  0  0  0
    6.5233    3.6459    0.0000 C   0  0  0  0  0  0  0  0  0  0  0  0
    3.3851    0.6976    0.0000 C   0  0  0  0  0  0  0  0  0  0  0  0
    3.3851   -0.8024    0.0000 C   0  0  0  0  0  0  0  0  0  0  0  0
    2.2124   -1.7376    0.0000 C   0  0  0  0  0  0  0  0  0  0  0  0
    2.5462   -3.2000    0.0000 C   0  0  0  0  0  0  0  0  0  0  0  0
    3.9255   -3.7896    0.0000 N   0  0  0  0  0  0  0  0  0  0  0  0
    3.7910   -5.2835    0.0000 N   0  0  0  0  0  0  0  0  0  0  0  0
    2.3286   -5.6173    0.0000 N   0  0  0  0  0  0  0  0  0  0  0  0
    1.5593   -4.3296    0.0000 N   0  0  0  0  0  0  0  0  0  0  0  0
    0.0653   -4.1952    0.0000 C   0  0  0  0  0  0  0  0  0  0  0  0
   -0.5652   -2.8342    0.0000 C   0  0  0  0  0  0  0  0  0  0  0  0
   -2.0592   -2.6997    0.0000 C   0  0  0  0  0  0  0  0  0  0  0  0
   -2.9226   -3.9263    0.0000 C   0  0  0  0  0  0  0  0  0  0  0  0
   -2.2921   -5.2873    0.0000 C   0  0  0  0  0  0  0  0  0  0  0  0
   -0.7981   -5.4218    0.0000 C   0  0  0  0  0  0  0  0  0  0  0  0
  1  2  2  0
  2  3  1  0
  3  4  2  0
  4  5  1  0
  5  6  2  0
  6  7  1  0
  7  8  1  0
  8  9  1  0
  9 10  1  0
 10 11  2  0
 11 12  1  0
 12 13  2  0
 13 14  1  0
 14 15  2  0
 15 16  1  0
 16 17  2  0
 17 18  1  0
 18 19  1  0
 19 20  2  0
 20 21  1  0
 21 22  2  0
 22 23  1  0
 23 24  2  0
 24 25  1  0
 25 26  1  0
 26 27  2  0
 27 28  1  0
 28 29  2  0
 29 30  1  0
 30 31  1  0
 31 32  2  0
 32 33  1  0
 33 34  2  0
 34 35  1  0
 34 36  1  0
 36 37  2  0
 17 38  1  0
 38 39  2  0
  8 40  2  0
 40 41  1  0
 41 42  2  0
 42 43  1  0
 43 44  2  0
 44 45  1  0
 45 46  2  0
 46 47  1  0
 47 48  1  0
 48 49  2  0
 49 50  1  0
 50 51  2  0
 51 52  1  0
 52 53  2  0
  7  2  1  0
 13  9  1  0
 39 14  1  0
 47 43  1  0
 53 48  1  0
 42  3  1  0
 24 18  1  0
 29 25  1  0
 37 31  1  0
M  END
>  <Title>  (335) 
idAAMWgen8

$$$$

     RDKit          2D

 26 29  0  0  0  0  0  0  0  0999 V2000
    3.0000    0.0000    0.0000 C   0  0  0  0  0  0  0  0  0  0  0  0
    1.5000    0.0000    0.0000 C   0  0  0  0  0  0  0  0  0  0  0  0
    0.7500   -1.2990    0.0000 C   0  0  0  0  0  0  0  0  0  0  0  0
   -0.7500   -1.2990    0.0000 C   0  0  0  0  0  0  0  0  0  0  0  0
   -1.5000    0.0000    0.0000 C   0  0  0  0  0  0  0  0  0  0  0  0
   -3.0000    0.0000    0.0000 C   0  0  0  0  0  0  0  0  0  0  0  0
   -3.7500    1.2990    0.0000 C   0  0  0  0  0  0  0  0  0  0  0  0
   -5.2500    1.2990    0.0000 N   0  0  0  0  0  0  0  0  0  0  0  0
   -6.0000    0.0000    0.0000 N   0  0  0  0  0  0  0  0  0  0  0  0
   -5.2500   -1.2990    0.0000 N   0  0  0  0  0  0  0  0  0  0  0  0
   -3.7500   -1.2990    0.0000 N   0  0  0  0  0  0  0  0  0  0  0  0
   -3.0000   -2.5981    0.0000 C   0  0  0  0  0  0  0  0  0  0  0  0
   -1.5082   -2.7549    0.0000 N   0  0  0  0  0  0  0  0  0  0  0  0
   -1.1963   -4.2221    0.0000 N   0  0  0  0  0  0  0  0  0  0  0  0
   -2.4954   -4.9721    0.0000 N   0  0  0  0  0  0  0  0  0  0  0  0
   -3.6101   -3.9684    0.0000 N   0  0  0  0  0  0  0  0  0  0  0  0
   -5.0773   -4.2803    0.0000 C   0  0  0  0  0  0  0  0  0  0  0  0
   -6.0810   -3.1655    0.0000 C   0  0  0  0  0  0  0  0  0  0  0  0
   -7.5482   -3.4774    0.0000 C   0  0  0  0  0  0  0  0  0  0  0  0
   -8.0118   -4.9040    0.0000 C   0  0  0  0  0  0  0  0  0  0  0  0
   -9.4790   -5.2159    0.0000 C   0  0  0  0  0  0  0  0  0  0  0  0
   -7.0081   -6.0187    0.0000 C   0  0  0  0  0  0  0  0  0  0  0  0
   -7.4716   -7.4453    0.0000 O   0  0  0  0  0  0  0  0  0  0  0  0
   -5.5409   -5.7068    0.0000 N   0  0  0  0  0  0  0  0  0  0  0  0
   -0.7500    1.2990    0.0000 C   0  0  0  0  0  0  0  0  0  0  0  0
    0.7500    1.2990    0.0000 C   0  0  0  0  0  0  0  0  0  0  0  0
  1  2  1  0
  2  3  2  0
  3  4  1  0
  4  5  2  0
  5  6  1  0
  6  7  1  0
  7  8  1  0
  8  9  1  0
  9 10  2  0
 10 11  1  0
 11 12  1  0
 12 13  2  0
 13 14  1  0
 14 15  2  0
 15 16  1  0
 16 17  1  0
 17 18  2  0
 18 19  1  0
 19 20  2  0
 20 21  1  0
 20 22  1  0
 22 23  2  0
 22 24  1  0
  5 25  1  0
 25 26  2  0
 26  2  1  0
 11  6  1  0
 16 12  1  0
 24 17  1  0
M  END
>  <Title>  (336) 
idAAMXgen8

$$$$

     RDKit          2D

 24 24  0  0  0  0  0  0  0  0999 V2000
    6.7700    0.0000    0.0000 C   0  0  0  0  0  0  0  0  0  0  0  0
    5.2700    0.0000    0.0000 C   0  0  0  0  0  0  0  0  0  0  0  0
    5.0565   -1.4847    0.0000 C   0  0  0  0  0  0  0  0  0  0  0  0
    4.4334   -2.8492    0.0000 C   0  0  0  0  0  0  0  0  0  0  0  0
    3.4511   -3.9828    0.0000 C   0  0  0  0  0  0  0  0  0  0  0  0
    2.1892   -4.7938    0.0000 C   0  0  0  0  0  0  0  0  0  0  0  0
    0.7500   -5.2164    0.0000 C   0  0  0  0  0  0  0  0  0  0  0  0
   -0.7500   -5.2164    0.0000 C   0  0  0  0  0  0  0  0  0  0  0  0
   -2.1892   -4.7938    0.0000 C   0  0  0  0  0  0  0  0  0  0  0  0
   -3.4511   -3.9828    0.0000 C   0  0  0  0  0  0  0  0  0  0  0  0
   -4.4334   -2.8492    0.0000 C   0  0  0  0  0  0  0  0  0  0  0  0
   -5.0565   -1.4847    0.0000 C   0  0  0  0  0  0  0  0  0  0  0  0
   -5.2700    0.0000    0.0000 C   0  0  0  0  0  0  0  0  0  0  0  0
   -5.0565    1.4847    0.0000 C   0  0  0  0  0  0  0  0  0  0  0  0
   -4.4334    2.8492    0.0000 C   0  0  0  0  0  0  0  0  0  0  0  0
   -3.4511    3.9828    0.0000 C   0  0  0  0  0  0  0  0  0  0  0  0
   -2.1892    4.7938    0.0000 C   0  0  0  0  0  0  0  0  0  0  0  0
   -0.7500    5.2164    0.0000 C   0  0  0  0  0  0  0  0  0  0  0  0
    0.7500    5.2164    0.0000 C   0  0  0  0  0  0  0  0  0  0  0  0
    2.1892    4.7938    0.0000 C   0  0  0  0  0  0  0  0  0  0  0  0
    3.4511    3.9828    0.0000 C   0  0  0  0  0  0  0  0  0  0  0  0
    4.4334    5.1164    0.0000 F   0  0  0  0  0  0  0  0  0  0  0  0
    4.4334    2.8492    0.0000 C   0  0  0  0  0  0  0  0  0  0  0  0
    5.0565    1.4847    0.0000 C   0  0  0  0  0  0  0  0  0  0  0  0
  1  2  1  0
  2  3  2  0
  3  4  1  0
  4  5  2  0
  5  6  1  0
  6  7  2  0
  7  8  1  0
  8  9  2  0
  9 10  1  0
 10 11  2  0
 11 12  1  0
 12 13  2  0
 13 14  1  0
 14 15  2  0
 15 16  1  0
 16 17  2  0
 17 18  1  0
 18 19  2  0
 19 20  1  0
 20 21  2  0
 21 22  1  0
 21 23  1  0
 23 24  2  0
 24  2  1  0
M  END
>  <Title>  (337) 
idAAMYgen8

$$$$

     RDKit          2D

 63 72  0  0  0  0  0  0  0  0999 V2000
    1.5212   -8.7474    0.0000 C   0  0  0  0  0  0  0  0  0  0  0  0
    2.1922   -7.4058    0.0000 C   0  0  0  0  0  0  0  0  0  0  0  0
    1.3658   -6.1540    0.0000 C   0  0  0  0  0  0  0  0  0  0  0  0
    2.0368   -4.8124    0.0000 C   0  0  0  0  0  0  0  0  0  0  0  0
    3.5341   -4.7227    0.0000 C   0  0  0  0  0  0  0  0  0  0  0  0
    4.2051   -3.3811    0.0000 C   0  0  0  0  0  0  0  0  0  0  0  0
    3.5141   -2.0497    0.0000 C   0  0  0  0  0  0  0  0  0  0  0  0
    4.5668   -0.9812    0.0000 C   0  0  0  0  0  0  0  0  0  0  0  0
    5.9084   -1.6522    0.0000 C   0  0  0  0  0  0  0  0  0  0  0  0
    7.2398   -0.9612    0.0000 C   0  0  0  0  0  0  0  0  0  0  0  0
    8.5039   -1.7687    0.0000 C   0  0  0  0  0  0  0  0  0  0  0  0
    9.8352   -1.0778    0.0000 C   0  0  0  0  0  0  0  0  0  0  0  0
   11.0993   -1.8853    0.0000 C   0  0  0  0  0  0  0  0  0  0  0  0
   11.0320   -3.3838    0.0000 C   0  0  0  0  0  0  0  0  0  0  0  0
   12.2961   -4.1913    0.0000 C   0  0  0  0  0  0  0  0  0  0  0  0
   13.6275   -3.5003    0.0000 C   0  0  0  0  0  0  0  0  0  0  0  0
   14.8916   -4.3079    0.0000 C   0  0  0  0  0  0  0  0  0  0  0  0
   14.8243   -5.8063    0.0000 C   0  0  0  0  0  0  0  0  0  0  0  0
   16.0883   -6.6139    0.0000 C   0  0  0  0  0  0  0  0  0  0  0  0
   17.4197   -5.9229    0.0000 C   0  0  0  0  0  0  0  0  0  0  0  0
   17.4870   -4.4244    0.0000 C   0  0  0  0  0  0  0  0  0  0  0  0
   16.2229   -3.6169    0.0000 C   0  0  0  0  0  0  0  0  0  0  0  0
   13.6948   -2.0018    0.0000 C   0  0  0  0  0  0  0  0  0  0  0  0
   12.4307   -1.1943    0.0000 C   0  0  0  0  0  0  0  0  0  0  0  0
    9.9025    0.4207    0.0000 C   0  0  0  0  0  0  0  0  0  0  0  0
    8.6384    1.2283    0.0000 C   0  0  0  0  0  0  0  0  0  0  0  0
    7.3071    0.5373    0.0000 C   0  0  0  0  0  0  0  0  0  0  0  0
    6.0430    1.3448    0.0000 N   0  0  0  0  0  0  0  0  0  0  0  0
    4.6467    0.7968    0.0000 N   0  0  0  0  0  0  0  0  0  0  0  0
    3.6940    1.9554    0.0000 N   0  0  0  0  0  0  0  0  0  0  0  0
    4.5015    3.2195    0.0000 C   0  0  0  0  0  0  0  0  0  0  0  0
    5.9533    2.8421    0.0000 C   0  0  0  0  0  0  0  0  0  0  0  0
    7.1119    3.7948    0.0000 N   0  0  0  0  0  0  0  0  0  0  0  0
    8.5163    3.2678    0.0000 N   0  0  0  0  0  0  0  0  0  0  0  0
    9.6749    4.2204    0.0000 N   0  0  0  0  0  0  0  0  0  0  0  0
    9.4292    5.7002    0.0000 N   0  0  0  0  0  0  0  0  0  0  0  0
    8.0248    6.2272    0.0000 N   0  0  0  0  0  0  0  0  0  0  0  0
    6.8662    5.2745    0.0000 N   0  0  0  0  0  0  0  0  0  0  0  0
    5.4618    5.8016    0.0000 C   0  0  0  0  0  0  0  0  0  0  0  0
    4.3032    4.8489    0.0000 C   0  0  0  0  0  0  0  0  0  0  0  0
    2.8988    5.3760    0.0000 C   0  0  0  0  0  0  0  0  0  0  0  0
    2.6531    6.8557    0.0000 C   0  0  0  0  0  0  0  0  0  0  0  0
    3.8117    7.8084    0.0000 C   0  0  0  0  0  0  0  0  0  0  0  0
    5.2161    7.2813    0.0000 C   0  0  0  0  0  0  0  0  0  0  0  0
    6.3747    8.2340    0.0000 N   0  0  0  0  0  0  0  0  0  0  0  0
    7.8265    7.8566    0.0000 N   0  0  0  0  0  0  0  0  0  0  0  0
    8.6340    9.1207    0.0000 N   0  0  0  0  0  0  0  0  0  0  0  0
    7.6813   10.2793    0.0000 N   0  0  0  0  0  0  0  0  0  0  0  0
    6.2850    9.7313    0.0000 C   0  0  0  0  0  0  0  0  0  0  0  0
    5.0209   10.5389    0.0000 C   0  0  0  0  0  0  0  0  0  0  0  0
    5.0882   12.0374    0.0000 C   0  0  0  0  0  0  0  0  0  0  0  0
    6.4675   12.6269    0.0000 C   0  0  0  0  0  0  0  0  0  0  0  0
    6.8666   14.0728    0.0000 C   0  0  0  0  0  0  0  0  0  0  0  0
    5.9849   15.2864    0.0000 C   0  0  0  0  0  0  0  0  0  0  0  0
    6.6957   16.6073    0.0000 C   0  0  0  0  0  0  0  0  0  0  0  0
    4.4864   15.3537    0.0000 N   0  0  0  0  0  0  0  0  0  0  0  0
    3.4995   14.2240    0.0000 C   0  0  0  0  0  0  0  0  0  0  0  0
    2.0536   14.6231    0.0000 O   0  0  0  0  0  0  0  0  0  0  0  0
    3.7673   12.7482    0.0000 N   0  0  0  0  0  0  0  0  0  0  0  0
    5.6848   -3.1354    0.0000 C   0  0  0  0  0  0  0  0  0  0  0  0
    6.7534   -4.1881    0.0000 O   0  0  0  0  0  0  0  0  0  0  0  0
    4.3605   -5.9746    0.0000 C   0  0  0  0  0  0  0  0  0  0  0  0
    3.6895   -7.3161    0.0000 C   0  0  0  0  0  0  0  0  0  0  0  0
  1  2  1  0
  2  3  2  0
  3  4  1  0
  4  5  2  0
  5  6  1  0
  6  7  2  0
  7  8  1  0
  8  9  2  0
  9 10  1  0
 10 11  2  0
 11 12  1  0
 12 13  1  0
 13 14  2  0
 14 15  1  0
 15 16  2  0
 16 17  1  0
 17 18  2  0
 18 19  1  0
 19 20  2  0
 20 21  1  0
 21 22  2  0
 16 23  1  0
 23 24  2  0
 12 25  2  0
 25 26  1  0
 26 27  2  0
 27 28  1  0
 28 29  1  0
 29 30  2  0
 30 31  1  0
 31 32  2  0
 32 33  1  0
 33 34  1  0
 34 35  2  0
 35 36  1  0
 36 37  2  0
 37 38  1  0
 38 39  1  0
 39 40  2  0
 40 41  1  0
 41 42  2  0
 42 43  1  0
 43 44  2  0
 44 45  1  0
 45 46  1  0
 46 47  2  0
 47 48  1  0
 48 49  1  0
 49 50  2  3
 50 51  1  0
 51 52  2  0
 52 53  1  0
 53 54  2  0
 54 55  1  0
 54 56  1  0
 56 57  1  0
 57 58  2  0
 57 59  1  0
  9 60  1  0
 60 61  2  0
  5 62  1  0
 62 63  1  0
 63  2  1  0
 60  6  1  0
 27 10  1  0
 32 28  1  0
 38 33  1  0
 44 39  1  0
 49 45  1  0
 59 51  1  0
 24 13  1  0
 22 17  1  0
M  END
>  <Title>  (338) 
idAAMZgen8

$$$$

     RDKit          2D

 52 59  0  0  0  0  0  0  0  0999 V2000
    6.2950   12.1983    0.0000 C   0  0  0  0  0  0  0  0  0  0  0  0
    5.2665   11.1063    0.0000 C   0  0  0  0  0  0  0  0  0  0  0  0
    5.6979    9.6697    0.0000 C   0  0  0  0  0  0  0  0  0  0  0  0
    4.6695    8.5778    0.0000 C   0  0  0  0  0  0  0  0  0  0  0  0
    3.2096    8.9225    0.0000 C   0  0  0  0  0  0  0  0  0  0  0  0
    2.1811    7.8306    0.0000 C   0  0  0  0  0  0  0  0  0  0  0  0
    2.4600    6.3568    0.0000 N   0  0  0  0  0  0  0  0  0  0  0  0
    1.1445    5.6361    0.0000 N   0  0  0  0  0  0  0  0  0  0  0  0
    0.0526    6.6645    0.0000 N   0  0  0  0  0  0  0  0  0  0  0  0
    0.6933    8.0208    0.0000 N   0  0  0  0  0  0  0  0  0  0  0  0
   -0.0274    9.3364    0.0000 C   0  0  0  0  0  0  0  0  0  0  0  0
    0.7516   10.6182    0.0000 C   0  0  0  0  0  0  0  0  0  0  0  0
    0.0309   11.9338    0.0000 C   0  0  0  0  0  0  0  0  0  0  0  0
   -1.4687   11.9674    0.0000 N   0  0  0  0  0  0  0  0  0  0  0  0
   -2.2477   10.6856    0.0000 N   0  0  0  0  0  0  0  0  0  0  0  0
   -1.5270    9.3700    0.0000 C   0  0  0  0  0  0  0  0  0  0  0  0
   -2.3060    8.0881    0.0000 C   0  0  0  0  0  0  0  0  0  0  0  0
   -1.2694    7.0039    0.0000 C   0  0  0  0  0  0  0  0  0  0  0  0
   -0.9138    5.5467    0.0000 C   0  0  0  0  0  0  0  0  0  0  0  0
   -1.3344    4.1069    0.0000 C   0  0  0  0  0  0  0  0  0  0  0  0
    0.1520    3.9056    0.0000 C   0  0  0  0  0  0  0  0  0  0  0  0
    1.0468    4.7275    0.0000 O   0  0  0  0  0  0  0  0  0  0  0  0
    0.9214    2.6179    0.0000 N   0  0  0  0  0  0  0  0  0  0  0  0
    0.3943    1.2135    0.0000 C   0  0  0  0  0  0  0  0  0  0  0  0
    1.2760    0.0000    0.0000 N   0  0  0  0  0  0  0  0  0  0  0  0
    0.3943   -1.2135    0.0000 N   0  0  0  0  0  0  0  0  0  0  0  0
   -1.0323   -0.7500    0.0000 N   0  0  0  0  0  0  0  0  0  0  0  0
   -1.0323    0.7500    0.0000 N   0  0  0  0  0  0  0  0  0  0  0  0
   -2.2841    1.5763    0.0000 C   0  0  0  0  0  0  0  0  0  0  0  0
   -3.5718    0.8070    0.0000 C   0  0  0  0  0  0  0  0  0  0  0  0
   -3.5494   -0.6928    0.0000 C   0  0  0  0  0  0  0  0  0  0  0  0
   -4.8371   -1.4622    0.0000 C   0  0  0  0  0  0  0  0  0  0  0  0
   -4.9715   -2.9561    0.0000 C   0  0  0  0  0  0  0  0  0  0  0  0
   -6.4339   -3.2899    0.0000 C   0  0  0  0  0  0  0  0  0  0  0  0
   -7.2033   -2.0023    0.0000 C   0  0  0  0  0  0  0  0  0  0  0  0
   -6.2163   -0.8726    0.0000 C   0  0  0  0  0  0  0  0  0  0  0  0
   -2.4186    3.0703    0.0000 C   0  0  0  0  0  0  0  0  0  0  0  0
   -3.8758    2.7147    0.0000 N   0  0  0  0  0  0  0  0  0  0  0  0
   -5.3157    3.1353    0.0000 N   0  0  0  0  0  0  0  0  0  0  0  0
   -6.3522    4.2195    0.0000 N   0  0  0  0  0  0  0  0  0  0  0  0
   -6.7079    5.6768    0.0000 N   0  0  0  0  0  0  0  0  0  0  0  0
   -6.2872    7.1166    0.0000 C   0  0  0  0  0  0  0  0  0  0  0  0
   -7.2826    8.2388    0.0000 C   0  0  0  0  0  0  0  0  0  0  0  0
   -7.0258    9.7166    0.0000 C   0  0  0  0  0  0  0  0  0  0  0  0
   -5.7102   10.4373    0.0000 C   0  0  0  0  0  0  0  0  0  0  0  0
   -4.3266    9.8581    0.0000 C   0  0  0  0  0  0  0  0  0  0  0  0
   -3.7458    8.5088    0.0000 C   0  0  0  0  0  0  0  0  0  0  0  0
   -5.2030    8.1532    0.0000 C   0  0  0  0  0  0  0  0  0  0  0  0
   -5.9237    9.4687    0.0000 O   0  0  0  0  0  0  0  0  0  0  0  0
    2.7782   10.3591    0.0000 C   0  0  0  0  0  0  0  0  0  0  0  0
    1.4451   11.0469    0.0000 O   0  0  0  0  0  0  0  0  0  0  0  0
    3.8067   11.4511    0.0000 N   0  0  0  0  0  0  0  0  0  0  0  0
  1  2  1  0
  2  3  2  0
  3  4  1  0
  4  5  2  0
  5  6  1  0
  6  7  2  0
  7  8  1  0
  8  9  2  0
  9 10  1  0
 10 11  1  0
 11 12  2  0
 12 13  1  0
 13 14  2  0
 14 15  1  0
 15 16  2  0
 16 17  1  0
 17 18  2  0
 18 19  1  0
 19 20  2  0
 20 21  1  0
 21 22  2  0
 21 23  1  0
 23 24  1  0
 24 25  2  0
 25 26  1  0
 26 27  2  0
 27 28  1  0
 28 29  1  0
 29 30  2  3
 30 31  1  0
 31 32  2  3
 32 33  1  0
 33 34  2  0
 34 35  1  0
 35 36  2  0
 29 37  1  0
 37 38  2  0
 38 39  1  0
 39 40  2  0
 40 41  1  0
 41 42  2  0
 42 43  1  0
 43 44  1  0
 44 45  2  0
 45 46  1  0
 46 47  2  0
 47 48  1  0
 48 49  2  0
  5 50  1  0
 50 51  2  0
 50 52  1  0
 52  2  1  0
 10  6  1  0
 16 11  1  0
 47 17  1  0
 37 20  1  0
 48 42  1  0
 28 24  1  0
 36 32  1  0
M  END
>  <Title>  (339) 
idAANAgen8

$$$$

     RDKit          2D

 26 26  0  0  0  0  0  0  0  0999 V2000
    9.0200   -1.2990    0.0000 C   0  0  0  0  0  0  0  0  0  0  0  0
    7.5200   -1.2990    0.0000 C   0  0  0  0  0  0  0  0  0  0  0  0
    6.7700   -2.5981    0.0000 O   0  0  0  0  0  0  0  0  0  0  0  0
    6.7700    0.0000    0.0000 O   0  0  0  0  0  0  0  0  0  0  0  0
    5.2700    0.0000    0.0000 C   0  0  0  0  0  0  0  0  0  0  0  0
    5.0565   -1.4847    0.0000 C   0  0  0  0  0  0  0  0  0  0  0  0
    4.4334   -2.8492    0.0000 C   0  0  0  0  0  0  0  0  0  0  0  0
    3.4511   -3.9828    0.0000 C   0  0  0  0  0  0  0  0  0  0  0  0
    2.1892   -4.7938    0.0000 C   0  0  0  0  0  0  0  0  0  0  0  0
    0.7500   -5.2164    0.0000 C   0  0  0  0  0  0  0  0  0  0  0  0
   -0.7500   -5.2164    0.0000 C   0  0  0  0  0  0  0  0  0  0  0  0
   -2.1892   -4.7938    0.0000 C   0  0  0  0  0  0  0  0  0  0  0  0
   -3.4511   -3.9828    0.0000 C   0  0  0  0  0  0  0  0  0  0  0  0
   -4.4334   -2.8492    0.0000 C   0  0  0  0  0  0  0  0  0  0  0  0
   -5.0565   -1.4847    0.0000 C   0  0  0  0  0  0  0  0  0  0  0  0
   -5.2700    0.0000    0.0000 C   0  0  0  0  0  0  0  0  0  0  0  0
   -5.0565    1.4847    0.0000 C   0  0  0  0  0  0  0  0  0  0  0  0
   -4.4334    2.8492    0.0000 C   0  0  0  0  0  0  0  0  0  0  0  0
   -3.4511    3.9828    0.0000 C   0  0  0  0  0  0  0  0  0  0  0  0
   -2.1892    4.7938    0.0000 C   0  0  0  0  0  0  0  0  0  0  0  0
   -0.7500    5.2164    0.0000 C   0  0  0  0  0  0  0  0  0  0  0  0
    0.7500    5.2164    0.0000 C   0  0  0  0  0  0  0  0  0  0  0  0
    2.1892    4.7938    0.0000 C   0  0  0  0  0  0  0  0  0  0  0  0
    3.4511    3.9828    0.0000 C   0  0  0  0  0  0  0  0  0  0  0  0
    4.4334    2.8492    0.0000 C   0  0  0  0  0  0  0  0  0  0  0  0
    5.0565    1.4847    0.0000 C   0  0  0  0  0  0  0  0  0  0  0  0
  1  2  1  0
  2  3  2  0
  2  4  1  0
  4  5  1  0
  5  6  2  0
  6  7  1  0
  7  8  2  0
  8  9  1  0
  9 10  2  0
 10 11  1  0
 11 12  2  0
 12 13  1  0
 13 14  2  0
 14 15  1  0
 15 16  2  0
 16 17  1  0
 17 18  2  0
 18 19  1  0
 19 20  2  0
 20 21  1  0
 21 22  2  0
 22 23  1  0
 23 24  2  0
 24 25  1  0
 25 26  2  0
 26  5  1  0
M  END
>  <Title>  (340) 
idAANBgen8

$$$$

     RDKit          2D

 50 57  0  0  0  0  0  0  0  0999 V2000
    3.1066   -0.3821    0.0000 C   0  0  0  0  0  0  0  0  0  0  0  0
    2.0276   -1.4241    0.0000 C   0  0  0  0  0  0  0  0  0  0  0  0
    2.3905   -2.8796    0.0000 C   0  0  0  0  0  0  0  0  0  0  0  0
    1.3115   -3.9216    0.0000 C   0  0  0  0  0  0  0  0  0  0  0  0
   -0.1304   -3.5081    0.0000 C   0  0  0  0  0  0  0  0  0  0  0  0
   -1.2094   -4.5501    0.0000 C   0  0  0  0  0  0  0  0  0  0  0  0
   -1.0007   -6.0355    0.0000 N   0  0  0  0  0  0  0  0  0  0  0  0
   -2.3489   -6.6930    0.0000 N   0  0  0  0  0  0  0  0  0  0  0  0
   -3.3909   -5.6140    0.0000 N   0  0  0  0  0  0  0  0  0  0  0  0
   -2.6867   -4.2896    0.0000 N   0  0  0  0  0  0  0  0  0  0  0  0
   -3.3442   -2.9414    0.0000 C   0  0  0  0  0  0  0  0  0  0  0  0
   -2.5054   -1.6979    0.0000 C   0  0  0  0  0  0  0  0  0  0  0  0
   -3.1630   -0.3497    0.0000 C   0  0  0  0  0  0  0  0  0  0  0  0
   -4.6593   -0.2450    0.0000 C   0  0  0  0  0  0  0  0  0  0  0  0
   -5.3169    1.1032    0.0000 C   0  0  0  0  0  0  0  0  0  0  0  0
   -6.7941    1.3636    0.0000 N   0  0  0  0  0  0  0  0  0  0  0  0
   -7.0029    2.8490    0.0000 N   0  0  0  0  0  0  0  0  0  0  0  0
   -5.6547    3.5066    0.0000 N   0  0  0  0  0  0  0  0  0  0  0  0
   -4.6127    2.4276    0.0000 N   0  0  0  0  0  0  0  0  0  0  0  0
   -3.1273    2.6363    0.0000 C   0  0  0  0  0  0  0  0  0  0  0  0
   -2.8154    4.1036    0.0000 C   0  0  0  0  0  0  0  0  0  0  0  0
   -1.6334    5.0270    0.0000 C   0  0  0  0  0  0  0  0  0  0  0  0
   -0.1343    4.9747    0.0000 C   0  0  0  0  0  0  0  0  0  0  0  0
   -1.2803    5.9425    0.0000 C   0  0  0  0  0  0  0  0  0  0  0  0
   -0.3605    7.1274    0.0000 O   0  0  0  0  0  0  0  0  0  0  0  0
   -2.7676    6.1371    0.0000 N   0  0  0  0  0  0  0  0  0  0  0  0
   -4.1241    5.4967    0.0000 C   0  0  0  0  0  0  0  0  0  0  0  0
   -2.8028    4.9258    0.0000 C   0  0  0  0  0  0  0  0  0  0  0  0
   -2.6628    4.8107    0.0000 C   0  0  0  0  0  0  0  0  0  0  0  0
   -1.1388    4.0991    0.0000 C   0  0  0  0  0  0  0  0  0  0  0  0
   -1.1698    3.8498    0.0000 C   0  0  0  0  0  0  0  0  0  0  0  0
    0.4001    3.0772    0.0000 C   0  0  0  0  0  0  0  0  0  0  0  0
    1.1892    2.4856    0.0000 C   0  0  0  0  0  0  0  0  0  0  0  0
    0.9804    3.9710    0.0000 C   0  0  0  0  0  0  0  0  0  0  0  0
    2.3048    4.6752    0.0000 O   0  0  0  0  0  0  0  0  0  0  0  0
    0.3943    1.2135    0.0000 N   0  0  0  0  0  0  0  0  0  0  0  0
    1.2760    0.0000    0.0000 N   0  0  0  0  0  0  0  0  0  0  0  0
    0.3943   -1.2135    0.0000 N   0  0  0  0  0  0  0  0  0  0  0  0
   -1.0323   -0.7500    0.0000 N   0  0  0  0  0  0  0  0  0  0  0  0
   -1.0323    0.7500    0.0000 C   0  0  0  0  0  0  0  0  0  0  0  0
   -2.4231    1.3119    0.0000 N   0  0  0  0  0  0  0  0  0  0  0  0
   -4.0730    1.4733    0.0000 N   0  0  0  0  0  0  0  0  0  0  0  0
   -4.8999    2.7248    0.0000 N   0  0  0  0  0  0  0  0  0  0  0  0
   -4.9189    4.2247    0.0000 N   0  0  0  0  0  0  0  0  0  0  0  0
   -5.4981   -1.4886    0.0000 C   0  0  0  0  0  0  0  0  0  0  0  0
   -6.9945   -1.3840    0.0000 O   0  0  0  0  0  0  0  0  0  0  0  0
   -4.8406   -2.8368    0.0000 N   0  0  0  0  0  0  0  0  0  0  0  0
   -0.4933   -2.0527    0.0000 C   0  0  0  0  0  0  0  0  0  0  0  0
   -1.7923   -1.3026    0.0000 O   0  0  0  0  0  0  0  0  0  0  0  0
    0.5857   -1.0107    0.0000 N   0  0  0  0  0  0  0  0  0  0  0  0
  1  2  1  0
  2  3  2  0
  3  4  1  0
  4  5  2  0
  5  6  1  0
  6  7  2  0
  7  8  1  0
  8  9  2  0
  9 10  1  0
 10 11  1  0
 11 12  2  0
 12 13  1  0
 13 14  2  0
 14 15  1  0
 15 16  2  0
 16 17  1  0
 17 18  2  0
 18 19  1  0
 19 20  1  0
 20 21  2  0
 21 22  1  0
 22 23  2  0
 23 24  1  0
 24 25  2  0
 24 26  1  0
 26 27  1  0
 27 28  1  0
 28 29  2  0
 29 30  1  0
 30 31  2  0
 31 32  1  0
 32 33  2  0
 33 34  1  0
 34 35  2  0
 33 36  1  0
 36 37  1  0
 37 38  2  0
 38 39  1  0
 39 40  2  0
 40 41  1  0
 41 42  1  0
 42 43  2  0
 43 44  1  0
 14 45  1  0
 45 46  2  0
 45 47  1  0
  5 48  1  0
 48 49  2  0
 48 50  1  0
 50  2  1  0
 10  6  1  0
 47 11  1  0
 19 15  1  0
 41 20  1  0
 34 23  1  0
 40 36  1  0
 44 27  2  0
M  END
>  <Title>  (341) 
idAANCgen8

$$$$

     RDKit          2D

 30 34  0  0  0  0  0  0  0  0999 V2000
  -11.5327    3.6666    0.0000 C   0  0  0  0  0  0  0  0  0  0  0  0
  -10.1624    4.2767    0.0000 O   0  0  0  0  0  0  0  0  0  0  0  0
   -8.9488    3.3950    0.0000 C   0  0  0  0  0  0  0  0  0  0  0  0
   -9.1056    1.9033    0.0000 C   0  0  0  0  0  0  0  0  0  0  0  0
   -7.8921    1.0216    0.0000 C   0  0  0  0  0  0  0  0  0  0  0  0
   -6.5218    1.6317    0.0000 C   0  0  0  0  0  0  0  0  0  0  0  0
   -5.3083    0.7500    0.0000 C   0  0  0  0  0  0  0  0  0  0  0  0
   -5.3083   -0.7500    0.0000 N   0  0  0  0  0  0  0  0  0  0  0  0
   -3.8817   -1.2135    0.0000 N   0  0  0  0  0  0  0  0  0  0  0  0
   -3.0000    0.0000    0.0000 N   0  0  0  0  0  0  0  0  0  0  0  0
   -3.8817    1.2135    0.0000 N   0  0  0  0  0  0  0  0  0  0  0  0
   -3.4182    2.6401    0.0000 C   0  0  0  0  0  0  0  0  0  0  0  0
   -4.2998    3.8536    0.0000 C   0  0  0  0  0  0  0  0  0  0  0  0
   -3.4182    5.0672    0.0000 C   0  0  0  0  0  0  0  0  0  0  0  0
   -1.9916    4.6036    0.0000 C   0  0  0  0  0  0  0  0  0  0  0  0
   -0.7780    5.4853    0.0000 C   0  0  0  0  0  0  0  0  0  0  0  0
   -0.7780    6.9853    0.0000 N   0  0  0  0  0  0  0  0  0  0  0  0
    0.6485    7.4488    0.0000 N   0  0  0  0  0  0  0  0  0  0  0  0
    1.5302    6.2353    0.0000 N   0  0  0  0  0  0  0  0  0  0  0  0
    0.6485    5.0218    0.0000 N   0  0  0  0  0  0  0  0  0  0  0  0
    1.1121    3.5952    0.0000 C   0  0  0  0  0  0  0  0  0  0  0  0
    0.1084    2.4805    0.0000 C   0  0  0  0  0  0  0  0  0  0  0  0
    0.5719    1.0539    0.0000 C   0  0  0  0  0  0  0  0  0  0  0  0
    2.0391    0.7420    0.0000 C   0  0  0  0  0  0  0  0  0  0  0  0
    3.0428    1.8568    0.0000 C   0  0  0  0  0  0  0  0  0  0  0  0
    2.5793    3.2833    0.0000 C   0  0  0  0  0  0  0  0  0  0  0  0
   -1.9916    3.1036    0.0000 C   0  0  0  0  0  0  0  0  0  0  0  0
   -0.7780    2.2220    0.0000 O   0  0  0  0  0  0  0  0  0  0  0  0
   -6.3650    3.1235    0.0000 C   0  0  0  0  0  0  0  0  0  0  0  0
   -7.5785    4.0051    0.0000 C   0  0  0  0  0  0  0  0  0  0  0  0
  1  2  1  0
  2  3  1  0
  3  4  2  0
  4  5  1  0
  5  6  2  0
  6  7  1  0
  7  8  2  0
  8  9  1  0
  9 10  2  0
 10 11  1  0
 11 12  1  0
 12 13  2  0
 13 14  1  0
 14 15  2  0
 15 16  1  0
 16 17  2  0
 17 18  1  0
 18 19  2  0
 19 20  1  0
 20 21  1  0
 21 22  2  0
 22 23  1  0
 23 24  2  0
 24 25  1  0
 25 26  2  0
 15 27  1  0
 27 28  2  0
  6 29  1  0
 29 30  2  0
 30  3  1  0
 11  7  1  0
 27 12  1  0
 20 16  1  0
 26 21  1  0
M  END
>  <Title>  (342) 
idAANDgen8

$$$$

     RDKit          2D

 37 42  0  0  0  0  0  0  0  0999 V2000
    3.0000    0.0000    0.0000 C   0  0  0  0  0  0  0  0  0  0  0  0
    1.5000    0.0000    0.0000 C   0  0  0  0  0  0  0  0  0  0  0  0
    0.7500   -1.2990    0.0000 C   0  0  0  0  0  0  0  0  0  0  0  0
   -0.7500   -1.2990    0.0000 C   0  0  0  0  0  0  0  0  0  0  0  0
   -1.5000    0.0000    0.0000 C   0  0  0  0  0  0  0  0  0  0  0  0
   -3.0000    0.0000    0.0000 C   0  0  0  0  0  0  0  0  0  0  0  0
   -3.8817   -1.2135    0.0000 N   0  0  0  0  0  0  0  0  0  0  0  0
   -5.3083   -0.7500    0.0000 N   0  0  0  0  0  0  0  0  0  0  0  0
   -5.3083    0.7500    0.0000 N   0  0  0  0  0  0  0  0  0  0  0  0
   -3.8817    1.2135    0.0000 N   0  0  0  0  0  0  0  0  0  0  0  0
   -3.4182    2.6401    0.0000 C   0  0  0  0  0  0  0  0  0  0  0  0
   -4.2998    3.8536    0.0000 C   0  0  0  0  0  0  0  0  0  0  0  0
   -3.4182    5.0672    0.0000 C   0  0  0  0  0  0  0  0  0  0  0  0
   -1.9916    4.6036    0.0000 C   0  0  0  0  0  0  0  0  0  0  0  0
   -0.7780    5.4853    0.0000 C   0  0  0  0  0  0  0  0  0  0  0  0
    0.5923    4.8752    0.0000 C   0  0  0  0  0  0  0  0  0  0  0  0
    1.8058    5.7569    0.0000 C   0  0  0  0  0  0  0  0  0  0  0  0
    1.6490    7.2487    0.0000 C   0  0  0  0  0  0  0  0  0  0  0  0
    0.2787    7.8588    0.0000 C   0  0  0  0  0  0  0  0  0  0  0  0
   -0.9348    6.9771    0.0000 C   0  0  0  0  0  0  0  0  0  0  0  0
   -2.3052    7.5872    0.0000 C   0  0  0  0  0  0  0  0  0  0  0  0
   -3.5187    6.7055    0.0000 C   0  0  0  0  0  0  0  0  0  0  0  0
   -4.8890    7.3156    0.0000 C   0  0  0  0  0  0  0  0  0  0  0  0
   -5.0458    8.8074    0.0000 C   0  0  0  0  0  0  0  0  0  0  0  0
   -3.8323    9.6891    0.0000 C   0  0  0  0  0  0  0  0  0  0  0  0
   -2.4619    9.0790    0.0000 C   0  0  0  0  0  0  0  0  0  0  0  0
   -1.2484    9.9607    0.0000 C   0  0  0  0  0  0  0  0  0  0  0  0
   -1.4052   11.4524    0.0000 C   0  0  0  0  0  0  0  0  0  0  0  0
   -0.1917   12.3341    0.0000 C   0  0  0  0  0  0  0  0  0  0  0  0
    1.1786   11.7240    0.0000 C   0  0  0  0  0  0  0  0  0  0  0  0
    1.3354   10.2322    0.0000 C   0  0  0  0  0  0  0  0  0  0  0  0
    0.1219    9.3506    0.0000 C   0  0  0  0  0  0  0  0  0  0  0  0
   -1.9916    3.1036    0.0000 C   0  0  0  0  0  0  0  0  0  0  0  0
   -0.7780    2.2220    0.0000 O   0  0  0  0  0  0  0  0  0  0  0  0
   -0.7500    1.2990    0.0000 N   0  0  0  0  0  0  0  0  0  0  0  0
    0.7500    1.2990    0.0000 C   0  0  0  0  0  0  0  0  0  0  0  0
    1.5000    2.5981    0.0000 O   0  0  0  0  0  0  0  0  0  0  0  0
  1  2  1  0
  2  3  2  0
  3  4  1  0
  4  5  2  0
  5  6  1  0
  6  7  2  0
  7  8  1  0
  8  9  2  0
  9 10  1  0
 10 11  1  0
 11 12  2  0
 12 13  1  0
 13 14  2  0
 14 15  1  0
 15 16  2  0
 16 17  1  0
 17 18  2  0
 18 19  1  0
 19 20  2  0
 20 21  1  0
 21 22  2  0
 22 23  1  0
 23 24  2  0
 24 25  1  0
 25 26  2  0
 26 27  1  0
 27 28  2  0
 28 29  1  0
 29 30  2  0
 30 31  1  0
 31 32  2  0
 14 33  1  0
 33 34  2  0
  5 35  1  0
 35 36  1  0
 36 37  2  0
 36  2  1  0
 10  6  1  0
 33 11  1  0
 20 15  1  0
 26 21  1  0
 32 27  1  0
M  END
>  <Title>  (343) 
idAANEgen8

$$$$

     RDKit          2D

 25 26  0  0  0  0  0  0  0  0999 V2000
   -6.2275    0.8598    0.0000 C   0  0  0  0  0  0  0  0  0  0  0  0
   -5.2238    1.9745    0.0000 C   0  0  0  0  0  0  0  0  0  0  0  0
   -6.1765    3.1332    0.0000 C   0  0  0  0  0  0  0  0  0  0  0  0
   -6.7453    4.5211    0.0000 C   0  0  0  0  0  0  0  0  0  0  0  0
   -6.8798    6.0151    0.0000 C   0  0  0  0  0  0  0  0  0  0  0  0
   -6.5679    7.4823    0.0000 C   0  0  0  0  0  0  0  0  0  0  0  0
   -5.8374    8.7924    0.0000 C   0  0  0  0  0  0  0  0  0  0  0  0
   -4.7532    9.8290    0.0000 C   0  0  0  0  0  0  0  0  0  0  0  0
   -3.4117   10.5000    0.0000 C   0  0  0  0  0  0  0  0  0  0  0  0
   -1.9319   10.7457    0.0000 C   0  0  0  0  0  0  0  0  0  0  0  0
   -0.4455   10.5444    0.0000 C   0  0  0  0  0  0  0  0  0  0  0  0
    0.9155    9.9138    0.0000 C   0  0  0  0  0  0  0  0  0  0  0  0
    2.0303    8.9101    0.0000 C   0  0  0  0  0  0  0  0  0  0  0  0
    2.7996    7.6225    0.0000 C   0  0  0  0  0  0  0  0  0  0  0  0
    3.1552    6.1652    0.0000 C   0  0  0  0  0  0  0  0  0  0  0  0
    3.0655    4.6679    0.0000 C   0  0  0  0  0  0  0  0  0  0  0  0
    2.5385    3.2636    0.0000 C   0  0  0  0  0  0  0  0  0  0  0  0
    1.6209    2.0770    0.0000 C   0  0  0  0  0  0  0  0  0  0  0  0
    0.3943    1.2135    0.0000 C   0  0  0  0  0  0  0  0  0  0  0  0
    1.2760    0.0000    0.0000 C   0  0  0  0  0  0  0  0  0  0  0  0
    0.3943   -1.2135    0.0000 C   0  0  0  0  0  0  0  0  0  0  0  0
   -1.0323   -0.7500    0.0000 C   0  0  0  0  0  0  0  0  0  0  0  0
   -1.0323    0.7500    0.0000 C   0  0  0  0  0  0  0  0  0  0  0  0
   -2.5321    0.7276    0.0000 C   0  0  0  0  0  0  0  0  0  0  0  0
   -3.9719    1.1482    0.0000 C   0  0  0  0  0  0  0  0  0  0  0  0
  1  2  1  0
  2  3  2  0
  3  4  1  0
  4  5  2  0
  5  6  1  0
  6  7  2  0
  7  8  1  0
  8  9  2  0
  9 10  1  0
 10 11  2  0
 11 12  1  0
 12 13  2  0
 13 14  1  0
 14 15  2  0
 15 16  1  0
 16 17  2  0
 17 18  1  0
 18 19  2  0
 19 20  1  0
 20 21  2  0
 21 22  1  0
 22 23  2  0
 23 24  1  0
 24 25  1  0
 25  2  1  0
 23 19  1  0
M  END
>  <Title>  (344) 
idAANFgen8

$$$$

     RDKit          2D

 33 33  0  0  0  0  0  0  0  0999 V2000
    9.1517    0.0000    0.0000 C   0  0  0  0  0  0  0  0  0  0  0  0
    7.6517    0.0000    0.0000 C   0  0  0  0  0  0  0  0  0  0  0  0
    7.5047   -1.4928    0.0000 C   0  0  0  0  0  0  0  0  0  0  0  0
    7.0693   -2.9282    0.0000 C   0  0  0  0  0  0  0  0  0  0  0  0
    6.3622   -4.2511    0.0000 C   0  0  0  0  0  0  0  0  0  0  0  0
    5.4106   -5.4106    0.0000 C   0  0  0  0  0  0  0  0  0  0  0  0
    4.2511   -6.3622    0.0000 C   0  0  0  0  0  0  0  0  0  0  0  0
    2.9282   -7.0693    0.0000 C   0  0  0  0  0  0  0  0  0  0  0  0
    1.4928   -7.5047    0.0000 C   0  0  0  0  0  0  0  0  0  0  0  0
   -0.0000   -7.6517    0.0000 C   0  0  0  0  0  0  0  0  0  0  0  0
   -1.4928   -7.5047    0.0000 C   0  0  0  0  0  0  0  0  0  0  0  0
   -2.9282   -7.0693    0.0000 C   0  0  0  0  0  0  0  0  0  0  0  0
   -4.2511   -6.3622    0.0000 C   0  0  0  0  0  0  0  0  0  0  0  0
   -5.4106   -5.4106    0.0000 C   0  0  0  0  0  0  0  0  0  0  0  0
   -6.3622   -4.2511    0.0000 C   0  0  0  0  0  0  0  0  0  0  0  0
   -7.0693   -2.9282    0.0000 C   0  0  0  0  0  0  0  0  0  0  0  0
   -7.5047   -1.4928    0.0000 C   0  0  0  0  0  0  0  0  0  0  0  0
   -7.6517    0.0000    0.0000 C   0  0  0  0  0  0  0  0  0  0  0  0
   -7.5047    1.4928    0.0000 C   0  0  0  0  0  0  0  0  0  0  0  0
   -7.0693    2.9282    0.0000 C   0  0  0  0  0  0  0  0  0  0  0  0
   -6.3622    4.2511    0.0000 C   0  0  0  0  0  0  0  0  0  0  0  0
   -5.4106    5.4106    0.0000 C   0  0  0  0  0  0  0  0  0  0  0  0
   -4.2511    6.3622    0.0000 C   0  0  0  0  0  0  0  0  0  0  0  0
   -2.9282    7.0693    0.0000 C   0  0  0  0  0  0  0  0  0  0  0  0
   -1.4928    7.5047    0.0000 C   0  0  0  0  0  0  0  0  0  0  0  0
    0.0000    7.6517    0.0000 C   0  0  0  0  0  0  0  0  0  0  0  0
    1.4928    7.5047    0.0000 C   0  0  0  0  0  0  0  0  0  0  0  0
    2.9282    7.0693    0.0000 C   0  0  0  0  0  0  0  0  0  0  0  0
    4.2511    6.3622    0.0000 C   0  0  0  0  0  0  0  0  0  0  0  0
    5.4106    5.4106    0.0000 C   0  0  0  0  0  0  0  0  0  0  0  0
    6.3622    4.2511    0.0000 C   0  0  0  0  0  0  0  0  0  0  0  0
    7.0693    2.9282    0.0000 C   0  0  0  0  0  0  0  0  0  0  0  0
    7.5047    1.4928    0.0000 N   0  0  0  0  0  0  0  0  0  0  0  0
  1  2  1  0
  2  3  2  0
  3  4  1  0
  4  5  2  0
  5  6  1  0
  6  7  2  0
  7  8  1  0
  8  9  2  0
  9 10  1  0
 10 11  2  0
 11 12  1  0
 12 13  2  0
 13 14  1  0
 14 15  2  0
 15 16  1  0
 16 17  2  0
 17 18  1  0
 18 19  2  0
 19 20  1  0
 20 21  2  0
 21 22  1  0
 22 23  2  0
 23 24  1  0
 24 25  2  0
 25 26  1  0
 26 27  2  0
 27 28  1  0
 28 29  2  0
 29 30  1  0
 30 31  2  0
 31 32  1  0
 32 33  1  0
 33  2  1  0
M  END
>  <Title>  (345) 
idAANGgen8

$$$$

     RDKit          2D

 23 23  0  0  0  0  0  0  0  0999 V2000
    6.7700    0.0000    0.0000 C   0  0  0  0  0  0  0  0  0  0  0  0
    5.2700    0.0000    0.0000 C   0  0  0  0  0  0  0  0  0  0  0  0
    5.0565   -1.4847    0.0000 C   0  0  0  0  0  0  0  0  0  0  0  0
    4.4334   -2.8492    0.0000 C   0  0  0  0  0  0  0  0  0  0  0  0
    3.4511   -3.9828    0.0000 C   0  0  0  0  0  0  0  0  0  0  0  0
    2.1892   -4.7938    0.0000 C   0  0  0  0  0  0  0  0  0  0  0  0
    0.7500   -5.2164    0.0000 C   0  0  0  0  0  0  0  0  0  0  0  0
   -0.7500   -5.2164    0.0000 C   0  0  0  0  0  0  0  0  0  0  0  0
   -2.1892   -4.7938    0.0000 C   0  0  0  0  0  0  0  0  0  0  0  0
   -3.4511   -3.9828    0.0000 C   0  0  0  0  0  0  0  0  0  0  0  0
   -4.4334   -2.8492    0.0000 C   0  0  0  0  0  0  0  0  0  0  0  0
   -5.0565   -1.4847    0.0000 C   0  0  0  0  0  0  0  0  0  0  0  0
   -5.2700    0.0000    0.0000 C   0  0  0  0  0  0  0  0  0  0  0  0
   -5.0565    1.4847    0.0000 C   0  0  0  0  0  0  0  0  0  0  0  0
   -4.4334    2.8492    0.0000 C   0  0  0  0  0  0  0  0  0  0  0  0
   -3.4511    3.9828    0.0000 C   0  0  0  0  0  0  0  0  0  0  0  0
   -2.1892    4.7938    0.0000 C   0  0  0  0  0  0  0  0  0  0  0  0
   -0.7500    5.2164    0.0000 C   0  0  0  0  0  0  0  0  0  0  0  0
    0.7500    5.2164    0.0000 C   0  0  0  0  0  0  0  0  0  0  0  0
    2.1892    4.7938    0.0000 C   0  0  0  0  0  0  0  0  0  0  0  0
    3.4511    3.9828    0.0000 C   0  0  0  0  0  0  0  0  0  0  0  0
    4.4334    2.8492    0.0000 C   0  0  0  0  0  0  0  0  0  0  0  0
    5.0565    1.4847    0.0000 N   0  0  0  0  0  0  0  0  0  0  0  0
  1  2  1  0
  2  3  2  0
  3  4  1  0
  4  5  2  0
  5  6  1  0
  6  7  2  0
  7  8  1  0
  8  9  2  0
  9 10  1  0
 10 11  2  0
 11 12  1  0
 12 13  2  0
 13 14  1  0
 14 15  2  0
 15 16  1  0
 16 17  2  0
 17 18  1  0
 18 19  2  0
 19 20  1  0
 20 21  2  0
 21 22  1  0
 22 23  1  0
 23  2  1  0
M  END
>  <Title>  (346) 
idAANHgen8

$$$$

     RDKit          2D

 52 60  0  0  0  0  0  0  0  0999 V2000
   -1.3240   -6.3062    0.0000 C   0  0  0  0  0  0  0  0  0  0  0  0
   -0.7500   -4.9204    0.0000 C   0  0  0  0  0  0  0  0  0  0  0  0
    0.7500   -4.9204    0.0000 C   0  0  0  0  0  0  0  0  0  0  0  0
    1.8107   -3.8597    0.0000 C   0  0  0  0  0  0  0  0  0  0  0  0
    1.8107   -2.3597    0.0000 C   0  0  0  0  0  0  0  0  0  0  0  0
    3.1965   -1.7857    0.0000 C   0  0  0  0  0  0  0  0  0  0  0  0
    3.5466   -0.3271    0.0000 N   0  0  0  0  0  0  0  0  0  0  0  0
    5.0420   -0.2094    0.0000 N   0  0  0  0  0  0  0  0  0  0  0  0
    5.6160   -1.5952    0.0000 N   0  0  0  0  0  0  0  0  0  0  0  0
    4.4754   -2.5694    0.0000 N   0  0  0  0  0  0  0  0  0  0  0  0
    4.5931   -4.0648    0.0000 C   0  0  0  0  0  0  0  0  0  0  0  0
    5.8721   -4.8485    0.0000 C   0  0  0  0  0  0  0  0  0  0  0  0
    5.5219   -6.3071    0.0000 C   0  0  0  0  0  0  0  0  0  0  0  0
    4.0265   -6.4248    0.0000 C   0  0  0  0  0  0  0  0  0  0  0  0
    3.2428   -7.7037    0.0000 C   0  0  0  0  0  0  0  0  0  0  0  0
    1.7474   -7.8214    0.0000 N   0  0  0  0  0  0  0  0  0  0  0  0
    1.3973   -9.2800    0.0000 N   0  0  0  0  0  0  0  0  0  0  0  0
    2.6762  -10.0637    0.0000 N   0  0  0  0  0  0  0  0  0  0  0  0
    3.8168   -9.0896    0.0000 N   0  0  0  0  0  0  0  0  0  0  0  0
    5.2754   -9.4397    0.0000 C   0  0  0  0  0  0  0  0  0  0  0  0
    5.7014  -10.8780    0.0000 C   0  0  0  0  0  0  0  0  0  0  0  0
    7.1600  -11.2281    0.0000 C   0  0  0  0  0  0  0  0  0  0  0  0
    8.1925  -10.1401    0.0000 C   0  0  0  0  0  0  0  0  0  0  0  0
    7.7665   -8.7018    0.0000 C   0  0  0  0  0  0  0  0  0  0  0  0
    6.3079   -8.3517    0.0000 C   0  0  0  0  0  0  0  0  0  0  0  0
    3.4525   -5.0390    0.0000 C   0  0  0  0  0  0  0  0  0  0  0  0
    1.9940   -4.6888    0.0000 O   0  0  0  0  0  0  0  0  0  0  0  0
    0.7500   -1.2990    0.0000 C   0  0  0  0  0  0  0  0  0  0  0  0
    1.5000    0.0000    0.0000 C   0  0  0  0  0  0  0  0  0  0  0  0
    0.7500    1.2990    0.0000 C   0  0  0  0  0  0  0  0  0  0  0  0
   -0.7500    1.2990    0.0000 C   0  0  0  0  0  0  0  0  0  0  0  0
   -1.5000    2.5981    0.0000 C   0  0  0  0  0  0  0  0  0  0  0  0
   -2.9918    2.7549    0.0000 N   0  0  0  0  0  0  0  0  0  0  0  0
   -3.3037    4.2221    0.0000 N   0  0  0  0  0  0  0  0  0  0  0  0
   -2.0046    4.9721    0.0000 N   0  0  0  0  0  0  0  0  0  0  0  0
   -0.8899    3.9684    0.0000 N   0  0  0  0  0  0  0  0  0  0  0  0
    0.5773    4.2803    0.0000 C   0  0  0  0  0  0  0  0  0  0  0  0
    1.5810    3.1655    0.0000 C   0  0  0  0  0  0  0  0  0  0  0  0
    3.0482    3.4774    0.0000 C   0  0  0  0  0  0  0  0  0  0  0  0
    3.5118    4.9040    0.0000 C   0  0  0  0  0  0  0  0  0  0  0  0
    2.5081    6.0187    0.0000 N   0  0  0  0  0  0  0  0  0  0  0  0
    1.0409    5.7068    0.0000 C   0  0  0  0  0  0  0  0  0  0  0  0
    0.0372    6.8216    0.0000 C   0  0  0  0  0  0  0  0  0  0  0  0
    0.5007    8.2481    0.0000 C   0  0  0  0  0  0  0  0  0  0  0  0
   -0.5030    9.3629    0.0000 C   0  0  0  0  0  0  0  0  0  0  0  0
   -1.9702    9.0510    0.0000 C   0  0  0  0  0  0  0  0  0  0  0  0
   -2.4338    7.6244    0.0000 C   0  0  0  0  0  0  0  0  0  0  0  0
   -1.4301    6.5097    0.0000 C   0  0  0  0  0  0  0  0  0  0  0  0
   -1.5000    0.0000    0.0000 C   0  0  0  0  0  0  0  0  0  0  0  0
   -0.7500   -1.2990    0.0000 C   0  0  0  0  0  0  0  0  0  0  0  0
   -1.8107   -2.3597    0.0000 C   0  0  0  0  0  0  0  0  0  0  0  0
   -1.8107   -3.8597    0.0000 N   0  0  0  0  0  0  0  0  0  0  0  0
  1  2  1  0
  2  3  2  0
  3  4  1  0
  4  5  2  0
  5  6  1  0
  6  7  2  0
  7  8  1  0
  8  9  2  0
  9 10  1  0
 10 11  1  0
 11 12  2  0
 12 13  1  0
 13 14  2  0
 14 15  1  0
 15 16  2  0
 16 17  1  0
 17 18  2  0
 18 19  1  0
 19 20  1  0
 20 21  2  0
 21 22  1  0
 22 23  2  0
 23 24  1  0
 24 25  2  0
 14 26  1  0
 26 27  2  0
  5 28  1  0
 28 29  2  0
 29 30  1  0
 30 31  2  0
 31 32  1  0
 32 33  2  0
 33 34  1  0
 34 35  2  0
 35 36  1  0
 36 37  1  0
 37 38  2  0
 38 39  1  0
 39 40  2  0
 40 41  1  0
 41 42  2  0
 42 43  1  0
 43 44  2  0
 44 45  1  0
 45 46  2  0
 46 47  1  0
 47 48  2  0
 31 49  1  0
 49 50  2  0
 50 51  1  0
 51 52  2  0
 52  2  1  0
 10  6  1  0
 26 11  1  0
 50 28  1  0
 19 15  1  0
 25 20  1  0
 36 32  1  0
 42 37  1  0
 48 43  1  0
M  END
>  <Title>  (347) 
idAANIgen8

$$$$

     RDKit          2D

 36 40  0  0  0  0  0  0  0  0999 V2000
  -11.9802   -3.4608    0.0000 C   0  0  0  0  0  0  0  0  0  0  0  0
  -11.6028   -2.0091    0.0000 O   0  0  0  0  0  0  0  0  0  0  0  0
  -10.1569   -1.6100    0.0000 C   0  0  0  0  0  0  0  0  0  0  0  0
   -9.8891   -0.1341    0.0000 C   0  0  0  0  0  0  0  0  0  0  0  0
   -8.5682    0.5767    0.0000 C   0  0  0  0  0  0  0  0  0  0  0  0
   -7.1889   -0.0128    0.0000 C   0  0  0  0  0  0  0  0  0  0  0  0
   -6.4945    0.9842    0.0000 F   0  0  0  0  0  0  0  0  0  0  0  0
   -6.7898   -1.4588    0.0000 C   0  0  0  0  0  0  0  0  0  0  0  0
   -5.3139   -1.7266    0.0000 C   0  0  0  0  0  0  0  0  0  0  0  0
   -4.6631   -3.0781    0.0000 N   0  0  0  0  0  0  0  0  0  0  0  0
   -3.1767   -2.8767    0.0000 N   0  0  0  0  0  0  0  0  0  0  0  0
   -2.9088   -1.4008    0.0000 N   0  0  0  0  0  0  0  0  0  0  0  0
   -4.2297   -0.6900    0.0000 N   0  0  0  0  0  0  0  0  0  0  0  0
   -4.4311    0.7964    0.0000 C   0  0  0  0  0  0  0  0  0  0  0  0
   -5.7520    1.5072    0.0000 C   0  0  0  0  0  0  0  0  0  0  0  0
   -5.4841    2.9831    0.0000 C   0  0  0  0  0  0  0  0  0  0  0  0
   -3.9977    3.1844    0.0000 C   0  0  0  0  0  0  0  0  0  0  0  0
   -3.2869    4.5053    0.0000 C   0  0  0  0  0  0  0  0  0  0  0  0
   -4.0754    5.7814    0.0000 O   0  0  0  0  0  0  0  0  0  0  0  0
   -1.7876    4.5502    0.0000 N   0  0  0  0  0  0  0  0  0  0  0  0
   -1.0768    5.8711    0.0000 C   0  0  0  0  0  0  0  0  0  0  0  0
   -1.7276    7.2226    0.0000 N   0  0  0  0  0  0  0  0  0  0  0  0
   -0.6434    8.2592    0.0000 N   0  0  0  0  0  0  0  0  0  0  0  0
    0.6775    7.5484    0.0000 N   0  0  0  0  0  0  0  0  0  0  0  0
    0.4096    6.0725    0.0000 N   0  0  0  0  0  0  0  0  0  0  0  0
    1.4462    4.9883    0.0000 C   0  0  0  0  0  0  0  0  0  0  0  0
    1.0256    3.5485    0.0000 C   0  0  0  0  0  0  0  0  0  0  0  0
    2.0622    2.4643    0.0000 C   0  0  0  0  0  0  0  0  0  0  0  0
    3.5194    2.8199    0.0000 C   0  0  0  0  0  0  0  0  0  0  0  0
    3.9401    4.2597    0.0000 C   0  0  0  0  0  0  0  0  0  0  0  0
    2.9035    5.3439    0.0000 C   0  0  0  0  0  0  0  0  0  0  0  0
   -3.3469    1.8330    0.0000 C   0  0  0  0  0  0  0  0  0  0  0  0
   -1.8710    1.5652    0.0000 O   0  0  0  0  0  0  0  0  0  0  0  0
   -7.6715   -2.6723    0.0000 C   0  0  0  0  0  0  0  0  0  0  0  0
   -6.9607   -3.9932    0.0000 O   0  0  0  0  0  0  0  0  0  0  0  0
   -9.1700   -2.7396    0.0000 N   0  0  0  0  0  0  0  0  0  0  0  0
  1  2  1  0
  2  3  1  0
  3  4  2  0
  4  5  1  0
  5  6  2  0
  6  7  1  0
  6  8  1  0
  8  9  1  0
  9 10  2  0
 10 11  1  0
 11 12  2  0
 12 13  1  0
 13 14  1  0
 14 15  2  0
 15 16  1  0
 16 17  2  0
 17 18  1  0
 18 19  2  0
 18 20  1  0
 20 21  1  0
 21 22  2  0
 22 23  1  0
 23 24  2  0
 24 25  1  0
 25 26  1  0
 26 27  2  0
 27 28  1  0
 28 29  2  0
 29 30  1  0
 30 31  2  0
 17 32  1  0
 32 33  2  0
  8 34  1  0
 34 35  2  0
 34 36  1  0
 36  3  1  0
 13  9  1  0
 32 14  1  0
 25 21  1  0
 31 26  1  0
M  END
>  <Title>  (348) 
idAANJgen8

$$$$

     RDKit          2D

 10 10  0  0  0  0  0  0  0  0999 V2000
    4.2098   -1.2990    0.0000 C   0  0  0  0  0  0  0  0  0  0  0  0
    3.4598   -0.0000    0.0000 O   0  0  0  0  0  0  0  0  0  0  0  0
    1.9598    0.0000    0.0000 N   0  0  0  0  0  0  0  0  0  0  0  0
    1.3858   -1.3858    0.0000 C   0  0  0  0  0  0  0  0  0  0  0  0
   -0.0000   -1.9598    0.0000 C   0  0  0  0  0  0  0  0  0  0  0  0
   -1.3858   -1.3858    0.0000 C   0  0  0  0  0  0  0  0  0  0  0  0
   -1.9598    0.0000    0.0000 C   0  0  0  0  0  0  0  0  0  0  0  0
   -1.3858    1.3858    0.0000 C   0  0  0  0  0  0  0  0  0  0  0  0
    0.0000    1.9598    0.0000 C   0  0  0  0  0  0  0  0  0  0  0  0
    1.3858    1.3858    0.0000 C   0  0  0  0  0  0  0  0  0  0  0  0
  1  2  1  0
  2  3  1  0
  3  4  1  0
  4  5  1  0
  5  6  1  0
  6  7  1  0
  7  8  1  0
  8  9  1  0
  9 10  1  0
 10  3  1  0
M  END
>  <Title>  (349) 
idAANKgen8

$$$$

     RDKit          2D

 42 48  0  0  0  0  0  0  0  0999 V2000
    5.1011   12.2028    0.0000 C   0  0  0  0  0  0  0  0  0  0  0  0
    4.6750   10.7645    0.0000 C   0  0  0  0  0  0  0  0  0  0  0  0
    3.2165   10.4144    0.0000 C   0  0  0  0  0  0  0  0  0  0  0  0
    2.7905    8.9761    0.0000 C   0  0  0  0  0  0  0  0  0  0  0  0
    3.8230    7.8881    0.0000 C   0  0  0  0  0  0  0  0  0  0  0  0
    3.3970    6.4498    0.0000 C   0  0  0  0  0  0  0  0  0  0  0  0
    4.3101    5.2598    0.0000 N   0  0  0  0  0  0  0  0  0  0  0  0
    3.4605    4.0236    0.0000 N   0  0  0  0  0  0  0  0  0  0  0  0
    2.0223    4.4497    0.0000 N   0  0  0  0  0  0  0  0  0  0  0  0
    1.9830    5.9491    0.0000 N   0  0  0  0  0  0  0  0  0  0  0  0
    0.7468    6.7987    0.0000 C   0  0  0  0  0  0  0  0  0  0  0  0
    0.8645    8.2941    0.0000 C   0  0  0  0  0  0  0  0  0  0  0  0
   -0.3717    9.1437    0.0000 C   0  0  0  0  0  0  0  0  0  0  0  0
   -1.7256    8.4980    0.0000 C   0  0  0  0  0  0  0  0  0  0  0  0
   -1.8433    7.0026    0.0000 C   0  0  0  0  0  0  0  0  0  0  0  0
   -0.6071    6.1530    0.0000 C   0  0  0  0  0  0  0  0  0  0  0  0
   -0.7248    4.6576    0.0000 C   0  0  0  0  0  0  0  0  0  0  0  0
    0.6118    3.9766    0.0000 C   0  0  0  0  0  0  0  0  0  0  0  0
    1.0753    2.5500    0.0000 C   0  0  0  0  0  0  0  0  0  0  0  0
    0.3943    1.2135    0.0000 C   0  0  0  0  0  0  0  0  0  0  0  0
    1.2760    0.0000    0.0000 C   0  0  0  0  0  0  0  0  0  0  0  0
    0.3943   -1.2135    0.0000 C   0  0  0  0  0  0  0  0  0  0  0  0
   -1.0323   -0.7500    0.0000 C   0  0  0  0  0  0  0  0  0  0  0  0
   -1.0323    0.7500    0.0000 C   0  0  0  0  0  0  0  0  0  0  0  0
   -2.3688    1.4310    0.0000 C   0  0  0  0  0  0  0  0  0  0  0  0
   -3.8529    1.2130    0.0000 C   0  0  0  0  0  0  0  0  0  0  0  0
   -4.9486    2.2373    0.0000 C   0  0  0  0  0  0  0  0  0  0  0  0
   -4.8309    3.7327    0.0000 C   0  0  0  0  0  0  0  0  0  0  0  0
   -6.1272    4.4876    0.0000 C   0  0  0  0  0  0  0  0  0  0  0  0
   -6.1215    5.9876    0.0000 C   0  0  0  0  0  0  0  0  0  0  0  0
   -7.4178    6.7424    0.0000 C   0  0  0  0  0  0  0  0  0  0  0  0
   -8.7196    5.9973    0.0000 C   0  0  0  0  0  0  0  0  0  0  0  0
   -8.7252    4.4973    0.0000 C   0  0  0  0  0  0  0  0  0  0  0  0
   -7.4290    3.7424    0.0000 C   0  0  0  0  0  0  0  0  0  0  0  0
   -3.5884    4.5731    0.0000 C   0  0  0  0  0  0  0  0  0  0  0  0
   -2.1513    4.1941    0.0000 C   0  0  0  0  0  0  0  0  0  0  0  0
   -2.8323    2.8576    0.0000 C   0  0  0  0  0  0  0  0  0  0  0  0
   -4.3277    2.9753    0.0000 O   0  0  0  0  0  0  0  0  0  0  0  0
    5.2815    8.2382    0.0000 C   0  0  0  0  0  0  0  0  0  0  0  0
    6.3141    7.1502    0.0000 C   0  0  0  0  0  0  0  0  0  0  0  0
    7.7726    7.5004    0.0000 O   0  0  0  0  0  0  0  0  0  0  0  0
    5.7076    9.6765    0.0000 N   0  0  0  0  0  0  0  0  0  0  0  0
  1  2  1  0
  2  3  2  0
  3  4  1  0
  4  5  2  0
  5  6  1  0
  6  7  2  0
  7  8  1  0
  8  9  2  0
  9 10  1  0
 10 11  1  0
 11 12  1  0
 12 13  1  0
 13 14  1  0
 14 15  1  0
 15 16  1  0
 16 17  1  0
 17 18  2  0
 18 19  1  0
 19 20  2  0
 20 21  1  0
 21 22  2  0
 22 23  1  0
 23 24  2  0
 24 25  1  0
 25 26  2  0
 26 27  1  0
 27 28  2  0
 28 29  1  0
 29 30  2  0
 30 31  1  0
 31 32  2  0
 32 33  1  0
 33 34  2  0
 28 35  1  0
 35 36  2  0
 36 37  1  0
 37 38  2  0
  5 39  1  0
 39 40  1  0
 40 41  1  0
 39 42  1  0
 42  2  1  0
 10  6  1  0
 16 11  1  0
 36 17  1  0
 24 20  1  0
 37 25  1  0
 34 29  1  0
M  END
>  <Title>  (350) 
idAANLgen8

$$$$

     RDKit          2D

 35 36  0  0  0  0  0  0  0  0999 V2000
   -4.0924    4.6755    0.0000 C   0  0  0  0  0  0  0  0  0  0  0  0
   -2.8579    3.8234    0.0000 O   0  0  0  0  0  0  0  0  0  0  0  0
   -1.5027    4.4664    0.0000 C   0  0  0  0  0  0  0  0  0  0  0  0
   -1.9777    5.8892    0.0000 C   0  0  0  0  0  0  0  0  0  0  0  0
   -2.0984    7.3844    0.0000 C   0  0  0  0  0  0  0  0  0  0  0  0
   -1.8578    8.8649    0.0000 C   0  0  0  0  0  0  0  0  0  0  0  0
   -1.2699   10.2449    0.0000 C   0  0  0  0  0  0  0  0  0  0  0  0
   -0.3687   11.4441    0.0000 C   0  0  0  0  0  0  0  0  0  0  0  0
    0.7932   12.3927    0.0000 C   0  0  0  0  0  0  0  0  0  0  0  0
    2.1483   13.0358    0.0000 C   0  0  0  0  0  0  0  0  0  0  0  0
    3.6180   13.3358    0.0000 C   0  0  0  0  0  0  0  0  0  0  0  0
    5.1168   13.2754    0.0000 C   0  0  0  0  0  0  0  0  0  0  0  0
    6.5576   12.8581    0.0000 C   0  0  0  0  0  0  0  0  0  0  0  0
    7.8566   12.1081    0.0000 C   0  0  0  0  0  0  0  0  0  0  0  0
    8.9384   11.0690    0.0000 C   0  0  0  0  0  0  0  0  0  0  0  0
    9.7401    9.8012    0.0000 C   0  0  0  0  0  0  0  0  0  0  0  0
   10.2151    8.3784    0.0000 C   0  0  0  0  0  0  0  0  0  0  0  0
   10.3358    6.8833    0.0000 C   0  0  0  0  0  0  0  0  0  0  0  0
   10.0952    5.4027    0.0000 C   0  0  0  0  0  0  0  0  0  0  0  0
    9.5073    4.0227    0.0000 C   0  0  0  0  0  0  0  0  0  0  0  0
    8.6062    2.8236    0.0000 C   0  0  0  0  0  0  0  0  0  0  0  0
    7.4442    1.8749    0.0000 C   0  0  0  0  0  0  0  0  0  0  0  0
    6.0891    1.2319    0.0000 C   0  0  0  0  0  0  0  0  0  0  0  0
    4.6194    0.9318    0.0000 C   0  0  0  0  0  0  0  0  0  0  0  0
    3.1206    0.9922    0.0000 C   0  0  0  0  0  0  0  0  0  0  0  0
    1.6798    1.4095    0.0000 C   0  0  0  0  0  0  0  0  0  0  0  0
    2.1929    0.0000    0.0000 C   0  0  0  0  0  0  0  0  0  0  0  0
    1.6798   -1.4095    0.0000 C   0  0  0  0  0  0  0  0  0  0  0  0
    0.3808   -2.1595    0.0000 C   0  0  0  0  0  0  0  0  0  0  0  0
   -1.0964   -1.8991    0.0000 C   0  0  0  0  0  0  0  0  0  0  0  0
   -2.0606   -0.7500    0.0000 C   0  0  0  0  0  0  0  0  0  0  0  0
   -2.0606    0.7500    0.0000 C   0  0  0  0  0  0  0  0  0  0  0  0
   -1.0964    1.8991    0.0000 C   0  0  0  0  0  0  0  0  0  0  0  0
    0.3808    2.1595    0.0000 C   0  0  0  0  0  0  0  0  0  0  0  0
   -0.7010    3.1986    0.0000 N   0  0  0  0  0  0  0  0  0  0  0  0
  1  2  1  0
  2  3  1  0
  3  4  2  0
  4  5  1  0
  5  6  2  0
  6  7  1  0
  7  8  2  0
  8  9  1  0
  9 10  2  0
 10 11  1  0
 11 12  2  0
 12 13  1  0
 13 14  2  0
 14 15  1  0
 15 16  2  0
 16 17  1  0
 17 18  2  0
 18 19  1  0
 19 20  2  0
 20 21  1  0
 21 22  2  0
 22 23  1  0
 23 24  2  0
 24 25  1  0
 25 26  2  0
 26 27  1  0
 27 28  1  0
 28 29  1  0
 29 30  2  0
 30 31  1  0
 31 32  2  0
 32 33  1  0
 33 34  2  0
 34 35  1  0
 35  3  1  0
 34 26  1  0
M  END
>  <Title>  (351) 
idAANMgen8

$$$$

     RDKit          2D

 27 30  0  0  0  0  0  0  0  0999 V2000
    3.0000    0.0000    0.0000 C   0  0  0  0  0  0  0  0  0  0  0  0
    1.5000    0.0000    0.0000 C   0  0  0  0  0  0  0  0  0  0  0  0
    0.7500   -1.2990    0.0000 C   0  0  0  0  0  0  0  0  0  0  0  0
   -0.7500   -1.2990    0.0000 C   0  0  0  0  0  0  0  0  0  0  0  0
   -1.5000    0.0000    0.0000 C   0  0  0  0  0  0  0  0  0  0  0  0
   -3.0000    0.0000    0.0000 C   0  0  0  0  0  0  0  0  0  0  0  0
   -3.7500   -1.2990    0.0000 O   0  0  0  0  0  0  0  0  0  0  0  0
   -3.7500    1.2990    0.0000 N   0  0  0  0  0  0  0  0  0  0  0  0
   -5.2500    1.2990    0.0000 C   0  0  0  0  0  0  0  0  0  0  0  0
   -6.1317    0.0855    0.0000 N   0  0  0  0  0  0  0  0  0  0  0  0
   -7.5583    0.5490    0.0000 N   0  0  0  0  0  0  0  0  0  0  0  0
   -7.5583    2.0490    0.0000 N   0  0  0  0  0  0  0  0  0  0  0  0
   -6.1317    2.5126    0.0000 N   0  0  0  0  0  0  0  0  0  0  0  0
   -5.6682    3.9391    0.0000 C   0  0  0  0  0  0  0  0  0  0  0  0
   -4.2009    4.2510    0.0000 C   0  0  0  0  0  0  0  0  0  0  0  0
   -3.7374    5.6776    0.0000 C   0  0  0  0  0  0  0  0  0  0  0  0
   -4.7411    6.7923    0.0000 C   0  0  0  0  0  0  0  0  0  0  0  0
   -4.2776    8.2189    0.0000 C   0  0  0  0  0  0  0  0  0  0  0  0
   -2.8104    8.5308    0.0000 C   0  0  0  0  0  0  0  0  0  0  0  0
   -2.3468    9.9574    0.0000 C   0  0  0  0  0  0  0  0  0  0  0  0
   -3.3505   11.0721    0.0000 N   0  0  0  0  0  0  0  0  0  0  0  0
   -4.8177   10.7602    0.0000 N   0  0  0  0  0  0  0  0  0  0  0  0
   -5.2813    9.3336    0.0000 N   0  0  0  0  0  0  0  0  0  0  0  0
   -6.2083    6.4805    0.0000 C   0  0  0  0  0  0  0  0  0  0  0  0
   -6.6718    5.0539    0.0000 C   0  0  0  0  0  0  0  0  0  0  0  0
   -0.7500    1.2990    0.0000 C   0  0  0  0  0  0  0  0  0  0  0  0
    0.7500    1.2990    0.0000 C   0  0  0  0  0  0  0  0  0  0  0  0
  1  2  1  0
  2  3  2  0
  3  4  1  0
  4  5  2  0
  5  6  1  0
  6  7  2  0
  6  8  1  0
  8  9  1  0
  9 10  2  0
 10 11  1  0
 11 12  2  0
 12 13  1  0
 13 14  1  0
 14 15  2  0
 15 16  1  0
 16 17  2  0
 17 18  1  0
 18 19  2  0
 19 20  1  0
 20 21  2  0
 21 22  1  0
 22 23  2  0
 17 24  1  0
 24 25  2  0
  5 26  1  0
 26 27  2  0
 27  2  1  0
 13  9  1  0
 25 14  1  0
 23 18  1  0
M  END
>  <Title>  (352) 
idAANNgen8

$$$$

     RDKit          2D

 48 54  0  0  0  0  0  0  0  0999 V2000
    3.0000   -0.0000    0.0000 C   0  0  0  0  0  0  0  0  0  0  0  0
    1.5000   -0.0000    0.0000 C   0  0  0  0  0  0  0  0  0  0  0  0
    0.7500   -1.2990    0.0000 C   0  0  0  0  0  0  0  0  0  0  0  0
   -0.7500   -1.2990    0.0000 C   0  0  0  0  0  0  0  0  0  0  0  0
   -1.5000    0.0000    0.0000 C   0  0  0  0  0  0  0  0  0  0  0  0
   -3.0000    0.0000    0.0000 C   0  0  0  0  0  0  0  0  0  0  0  0
   -3.7500   -1.2990    0.0000 O   0  0  0  0  0  0  0  0  0  0  0  0
   -3.7500    1.2990    0.0000 N   0  0  0  0  0  0  0  0  0  0  0  0
   -5.2500    1.2990    0.0000 C   0  0  0  0  0  0  0  0  0  0  0  0
   -6.1317    0.0855    0.0000 N   0  0  0  0  0  0  0  0  0  0  0  0
   -7.5583    0.5490    0.0000 N   0  0  0  0  0  0  0  0  0  0  0  0
   -7.5583    2.0490    0.0000 N   0  0  0  0  0  0  0  0  0  0  0  0
   -6.1317    2.5126    0.0000 N   0  0  0  0  0  0  0  0  0  0  0  0
   -5.6682    3.9391    0.0000 C   0  0  0  0  0  0  0  0  0  0  0  0
   -6.5498    5.1527    0.0000 C   0  0  0  0  0  0  0  0  0  0  0  0
   -5.6682    6.3662    0.0000 C   0  0  0  0  0  0  0  0  0  0  0  0
   -4.2416    5.9027    0.0000 C   0  0  0  0  0  0  0  0  0  0  0  0
   -3.0280    6.7844    0.0000 C   0  0  0  0  0  0  0  0  0  0  0  0
   -3.5411    8.1939    0.0000 O   0  0  0  0  0  0  0  0  0  0  0  0
   -1.6577    6.1742    0.0000 N   0  0  0  0  0  0  0  0  0  0  0  0
   -0.4442    7.0559    0.0000 C   0  0  0  0  0  0  0  0  0  0  0  0
    0.9824    6.5924    0.0000 N   0  0  0  0  0  0  0  0  0  0  0  0
    1.8641    7.8059    0.0000 N   0  0  0  0  0  0  0  0  0  0  0  0
    0.9824    9.0195    0.0000 N   0  0  0  0  0  0  0  0  0  0  0  0
   -0.4442    8.5559    0.0000 N   0  0  0  0  0  0  0  0  0  0  0  0
   -1.6577    9.4376    0.0000 C   0  0  0  0  0  0  0  0  0  0  0  0
   -3.0280    8.8275    0.0000 C   0  0  0  0  0  0  0  0  0  0  0  0
   -4.2416    9.7092    0.0000 C   0  0  0  0  0  0  0  0  0  0  0  0
   -4.0848   11.2010    0.0000 C   0  0  0  0  0  0  0  0  0  0  0  0
   -5.2983   12.0826    0.0000 C   0  0  0  0  0  0  0  0  0  0  0  0
   -6.6686   11.4725    0.0000 C   0  0  0  0  0  0  0  0  0  0  0  0
   -7.8821   12.3542    0.0000 C   0  0  0  0  0  0  0  0  0  0  0  0
   -7.7254   13.8460    0.0000 C   0  0  0  0  0  0  0  0  0  0  0  0
   -6.3550   14.4561    0.0000 C   0  0  0  0  0  0  0  0  0  0  0  0
   -5.1415   13.5744    0.0000 C   0  0  0  0  0  0  0  0  0  0  0  0
   -2.7145   11.8111    0.0000 C   0  0  0  0  0  0  0  0  0  0  0  0
   -1.5009   10.9294    0.0000 C   0  0  0  0  0  0  0  0  0  0  0  0
   -0.1306   11.5395    0.0000 C   0  0  0  0  0  0  0  0  0  0  0  0
    0.0262   13.0313    0.0000 C   0  0  0  0  0  0  0  0  0  0  0  0
    1.3965   13.6414    0.0000 C   0  0  0  0  0  0  0  0  0  0  0  0
    2.6100   12.7597    0.0000 C   0  0  0  0  0  0  0  0  0  0  0  0
    2.4532   11.2679    0.0000 C   0  0  0  0  0  0  0  0  0  0  0  0
    1.0829   10.6578    0.0000 C   0  0  0  0  0  0  0  0  0  0  0  0
   -4.2416    4.4027    0.0000 C   0  0  0  0  0  0  0  0  0  0  0  0
   -3.0280    3.5210    0.0000 O   0  0  0  0  0  0  0  0  0  0  0  0
   -0.7500    1.2990    0.0000 C   0  0  0  0  0  0  0  0  0  0  0  0
   -1.5000    2.5981    0.0000 O   0  0  0  0  0  0  0  0  0  0  0  0
    0.7500    1.2990    0.0000 N   0  0  0  0  0  0  0  0  0  0  0  0
  1  2  1  0
  2  3  2  0
  3  4  1  0
  4  5  2  0
  5  6  1  0
  6  7  2  0
  6  8  1  0
  8  9  1  0
  9 10  2  0
 10 11  1  0
 11 12  2  0
 12 13  1  0
 13 14  1  0
 14 15  2  0
 15 16  1  0
 16 17  2  0
 17 18  1  0
 18 19  2  0
 18 20  1  0
 20 21  1  0
 21 22  2  0
 22 23  1  0
 23 24  2  0
 24 25  1  0
 25 26  1  0
 26 27  2  0
 27 28  1  0
 28 29  2  0
 29 30  1  0
 30 31  2  0
 31 32  1  0
 32 33  2  0
 33 34  1  0
 34 35  2  0
 29 36  1  0
 36 37  2  0
 37 38  1  0
 38 39  2  0
 39 40  1  0
 40 41  2  0
 41 42  1  0
 42 43  2  0
 17 44  1  0
 44 45  2  0
  5 46  1  0
 46 47  2  0
 46 48  1  0
 48  2  1  0
 13  9  1  0
 44 14  1  0
 25 21  1  0
 37 26  1  0
 43 38  1  0
 35 30  1  0
M  END
>  <Title>  (353) 
idAANOgen8

$$$$

     RDKit          2D

 53 61  0  0  0  0  0  0  0  0999 V2000
    2.9701   -7.4676    0.0000 C   0  0  0  0  0  0  0  0  0  0  0  0
    1.8405   -6.4807    0.0000 O   0  0  0  0  0  0  0  0  0  0  0  0
    0.4210   -6.9655    0.0000 C   0  0  0  0  0  0  0  0  0  0  0  0
    0.1311   -8.4372    0.0000 C   0  0  0  0  0  0  0  0  0  0  0  0
   -1.2884   -8.9220    0.0000 C   0  0  0  0  0  0  0  0  0  0  0  0
   -2.4180   -7.9351    0.0000 C   0  0  0  0  0  0  0  0  0  0  0  0
   -3.8375   -8.4199    0.0000 C   0  0  0  0  0  0  0  0  0  0  0  0
   -4.2796   -9.8533    0.0000 N   0  0  0  0  0  0  0  0  0  0  0  0
   -5.7794   -9.8757    0.0000 N   0  0  0  0  0  0  0  0  0  0  0  0
   -6.2643   -8.4562    0.0000 N   0  0  0  0  0  0  0  0  0  0  0  0
   -5.0641   -7.5565    0.0000 N   0  0  0  0  0  0  0  0  0  0  0  0
   -5.0865   -6.0567    0.0000 C   0  0  0  0  0  0  0  0  0  0  0  0
   -3.7988   -5.2873    0.0000 C   0  0  0  0  0  0  0  0  0  0  0  0
   -3.8213   -3.7875    0.0000 C   0  0  0  0  0  0  0  0  0  0  0  0
   -5.1314   -3.0570    0.0000 C   0  0  0  0  0  0  0  0  0  0  0  0
   -5.1538   -1.5572    0.0000 C   0  0  0  0  0  0  0  0  0  0  0  0
   -6.3804   -0.6938    0.0000 N   0  0  0  0  0  0  0  0  0  0  0  0
   -5.9383    0.7396    0.0000 N   0  0  0  0  0  0  0  0  0  0  0  0
   -4.4384    0.7620    0.0000 N   0  0  0  0  0  0  0  0  0  0  0  0
   -3.9536   -0.6574    0.0000 N   0  0  0  0  0  0  0  0  0  0  0  0
   -2.5203   -1.0996    0.0000 C   0  0  0  0  0  0  0  0  0  0  0  0
   -1.5000    0.0000    0.0000 C   0  0  0  0  0  0  0  0  0  0  0  0
   -0.0042   -0.1121    0.0000 C   0  0  0  0  0  0  0  0  0  0  0  0
    0.8408   -1.3515    0.0000 C   0  0  0  0  0  0  0  0  0  0  0  0
    2.3240   -1.1279    0.0000 C   0  0  0  0  0  0  0  0  0  0  0  0
    2.8720    0.2684    0.0000 C   0  0  0  0  0  0  0  0  0  0  0  0
    4.3553    0.4920    0.0000 C   0  0  0  0  0  0  0  0  0  0  0  0
    5.2905   -0.6808    0.0000 C   0  0  0  0  0  0  0  0  0  0  0  0
    4.7425   -2.0771    0.0000 C   0  0  0  0  0  0  0  0  0  0  0  0
    3.2593   -2.3006    0.0000 C   0  0  0  0  0  0  0  0  0  0  0  0
    0.2941   -2.7770    0.0000 C   0  0  0  0  0  0  0  0  0  0  0  0
    0.1820   -4.2728    0.0000 N   0  0  0  0  0  0  0  0  0  0  0  0
   -1.1694   -4.9236    0.0000 N   0  0  0  0  0  0  0  0  0  0  0  0
   -2.4088   -4.0786    0.0000 N   0  0  0  0  0  0  0  0  0  0  0  0
   -2.2967   -2.5828    0.0000 N   0  0  0  0  0  0  0  0  0  0  0  0
   -0.9452   -1.9320    0.0000 C   0  0  0  0  0  0  0  0  0  0  0  0
   -0.5640   -0.7784    0.0000 O   0  0  0  0  0  0  0  0  0  0  0  0
   -6.4191   -3.8264    0.0000 C   0  0  0  0  0  0  0  0  0  0  0  0
   -6.3966   -5.3262    0.0000 C   0  0  0  0  0  0  0  0  0  0  0  0
   -7.6843   -6.0955    0.0000 C   0  0  0  0  0  0  0  0  0  0  0  0
   -7.8187   -7.5895    0.0000 N   0  0  0  0  0  0  0  0  0  0  0  0
   -9.2811   -7.9233    0.0000 N   0  0  0  0  0  0  0  0  0  0  0  0
  -10.0505   -6.6356    0.0000 N   0  0  0  0  0  0  0  0  0  0  0  0
   -9.0636   -5.5060    0.0000 N   0  0  0  0  0  0  0  0  0  0  0  0
   -9.3974   -4.0436    0.0000 C   0  0  0  0  0  0  0  0  0  0  0  0
   -8.2978   -3.0234    0.0000 C   0  0  0  0  0  0  0  0  0  0  0  0
   -8.6316   -1.5610    0.0000 C   0  0  0  0  0  0  0  0  0  0  0  0
  -10.0649   -1.1188    0.0000 C   0  0  0  0  0  0  0  0  0  0  0  0
  -11.1645   -2.1391    0.0000 C   0  0  0  0  0  0  0  0  0  0  0  0
  -10.8307   -3.6015    0.0000 C   0  0  0  0  0  0  0  0  0  0  0  0
   -2.1281   -6.4634    0.0000 C   0  0  0  0  0  0  0  0  0  0  0  0
   -2.9853   -5.2325    0.0000 O   0  0  0  0  0  0  0  0  0  0  0  0
   -0.7086   -5.9786    0.0000 N   0  0  0  0  0  0  0  0  0  0  0  0
  1  2  1  0
  2  3  1  0
  3  4  2  0
  4  5  1  0
  5  6  2  0
  6  7  1  0
  7  8  2  0
  8  9  1  0
  9 10  2  0
 10 11  1  0
 11 12  1  0
 12 13  2  0
 13 14  1  0
 14 15  2  0
 15 16  1  0
 16 17  2  0
 17 18  1  0
 18 19  2  0
 19 20  1  0
 20 21  1  0
 21 22  2  0
 22 23  1  0
 23 24  2  0
 24 25  1  0
 25 26  2  0
 26 27  1  0
 27 28  2  0
 28 29  1  0
 29 30  2  0
 24 31  1  0
 31 32  2  0
 32 33  1  0
 33 34  2  0
 34 35  1  0
 35 36  1  0
 36 37  2  0
 15 38  1  0
 38 39  2  0
 39 40  1  0
 40 41  2  0
 41 42  1  0
 42 43  2  0
 43 44  1  0
 44 45  1  0
 45 46  2  0
 46 47  1  0
 47 48  2  0
 48 49  1  0
 49 50  2  0
  6 51  1  0
 51 52  2  0
 51 53  1  0
 53  3  1  0
 11  7  1  0
 39 12  1  0
 44 40  1  0
 50 45  1  0
 20 16  1  0
 35 21  1  0
 30 25  1  0
 36 31  1  0
M  END
>  <Title>  (354) 
idAANPgen8

$$$$

     RDKit          2D

 42 47  0  0  0  0  0  0  0  0999 V2000
    3.7500   -1.2990    0.0000 C   0  0  0  0  0  0  0  0  0  0  0  0
    3.0000    0.0000    0.0000 O   0  0  0  0  0  0  0  0  0  0  0  0
    1.5000    0.0000    0.0000 C   0  0  0  0  0  0  0  0  0  0  0  0
    0.7500   -1.2990    0.0000 C   0  0  0  0  0  0  0  0  0  0  0  0
   -0.7500   -1.2990    0.0000 C   0  0  0  0  0  0  0  0  0  0  0  0
   -1.5000    0.0000    0.0000 C   0  0  0  0  0  0  0  0  0  0  0  0
   -3.0000    0.0000    0.0000 C   0  0  0  0  0  0  0  0  0  0  0  0
   -3.7500   -1.2990    0.0000 O   0  0  0  0  0  0  0  0  0  0  0  0
   -3.7500    1.2990    0.0000 N   0  0  0  0  0  0  0  0  0  0  0  0
   -5.2500    1.2990    0.0000 C   0  0  0  0  0  0  0  0  0  0  0  0
   -6.1317    0.0855    0.0000 N   0  0  0  0  0  0  0  0  0  0  0  0
   -7.5583    0.5490    0.0000 N   0  0  0  0  0  0  0  0  0  0  0  0
   -7.5583    2.0490    0.0000 N   0  0  0  0  0  0  0  0  0  0  0  0
   -6.1317    2.5126    0.0000 N   0  0  0  0  0  0  0  0  0  0  0  0
   -5.6682    3.9391    0.0000 C   0  0  0  0  0  0  0  0  0  0  0  0
   -4.2009    4.2510    0.0000 C   0  0  0  0  0  0  0  0  0  0  0  0
   -3.7374    5.6776    0.0000 C   0  0  0  0  0  0  0  0  0  0  0  0
   -4.7411    6.7923    0.0000 C   0  0  0  0  0  0  0  0  0  0  0  0
   -6.2083    6.4805    0.0000 C   0  0  0  0  0  0  0  0  0  0  0  0
   -6.6718    5.0539    0.0000 C   0  0  0  0  0  0  0  0  0  0  0  0
   -8.1391    4.7420    0.0000 C   0  0  0  0  0  0  0  0  0  0  0  0
   -8.7492    3.3717    0.0000 C   0  0  0  0  0  0  0  0  0  0  0  0
  -10.2410    3.5285    0.0000 C   0  0  0  0  0  0  0  0  0  0  0  0
  -10.5528    4.9957    0.0000 C   0  0  0  0  0  0  0  0  0  0  0  0
  -11.9231    5.6058    0.0000 C   0  0  0  0  0  0  0  0  0  0  0  0
  -13.1367    4.7241    0.0000 O   0  0  0  0  0  0  0  0  0  0  0  0
  -12.0799    7.0976    0.0000 N   0  0  0  0  0  0  0  0  0  0  0  0
  -13.4503    7.7077    0.0000 C   0  0  0  0  0  0  0  0  0  0  0  0
  -14.7493    6.9577    0.0000 N   0  0  0  0  0  0  0  0  0  0  0  0
  -15.8640    7.9614    0.0000 N   0  0  0  0  0  0  0  0  0  0  0  0
  -15.2539    9.3317    0.0000 N   0  0  0  0  0  0  0  0  0  0  0  0
  -13.7621    9.1749    0.0000 N   0  0  0  0  0  0  0  0  0  0  0  0
  -12.7584   10.2896    0.0000 C   0  0  0  0  0  0  0  0  0  0  0  0
  -11.2912    9.9778    0.0000 C   0  0  0  0  0  0  0  0  0  0  0  0
  -10.2875   11.0925    0.0000 C   0  0  0  0  0  0  0  0  0  0  0  0
  -10.7510   12.5191    0.0000 C   0  0  0  0  0  0  0  0  0  0  0  0
  -12.2183   12.8309    0.0000 C   0  0  0  0  0  0  0  0  0  0  0  0
  -13.2220   11.7162    0.0000 C   0  0  0  0  0  0  0  0  0  0  0  0
   -9.2538    5.7457    0.0000 C   0  0  0  0  0  0  0  0  0  0  0  0
   -9.0970    7.2375    0.0000 O   0  0  0  0  0  0  0  0  0  0  0  0
   -0.7500    1.2990    0.0000 C   0  0  0  0  0  0  0  0  0  0  0  0
    0.7500    1.2990    0.0000 C   0  0  0  0  0  0  0  0  0  0  0  0
  1  2  1  0
  2  3  1  0
  3  4  2  0
  4  5  1  0
  5  6  2  0
  6  7  1  0
  7  8  2  0
  7  9  1  0
  9 10  1  0
 10 11  2  0
 11 12  1  0
 12 13  2  0
 13 14  1  0
 14 15  1  0
 15 16  1  0
 16 17  1  0
 17 18  1  0
 18 19  1  0
 19 20  1  0
 20 21  1  0
 21 22  2  0
 22 23  1  0
 23 24  2  0
 24 25  1  0
 25 26  2  0
 25 27  1  0
 27 28  1  0
 28 29  2  0
 29 30  1  0
 30 31  2  0
 31 32  1  0
 32 33  1  0
 33 34  2  0
 34 35  1  0
 35 36  2  0
 36 37  1  0
 37 38  2  0
 24 39  1  0
 39 40  2  0
  6 41  1  0
 41 42  2  0
 42  3  1  0
 14 10  1  0
 20 15  1  0
 39 21  1  0
 32 28  1  0
 38 33  1  0
M  END
>  <Title>  (355) 
idAANQgen8

$$$$

     RDKit          2D

 40 45  0  0  0  0  0  0  0  0999 V2000
    3.7500   -1.2990    0.0000 C   0  0  0  0  0  0  0  0  0  0  0  0
    3.0000    0.0000    0.0000 O   0  0  0  0  0  0  0  0  0  0  0  0
    1.5000    0.0000    0.0000 C   0  0  0  0  0  0  0  0  0  0  0  0
    0.7500   -1.2990    0.0000 C   0  0  0  0  0  0  0  0  0  0  0  0
   -0.7500   -1.2990    0.0000 C   0  0  0  0  0  0  0  0  0  0  0  0
   -1.5000    0.0000    0.0000 C   0  0  0  0  0  0  0  0  0  0  0  0
   -3.0000    0.0000    0.0000 C   0  0  0  0  0  0  0  0  0  0  0  0
   -3.8817   -1.2135    0.0000 N   0  0  0  0  0  0  0  0  0  0  0  0
   -5.3083   -0.7500    0.0000 N   0  0  0  0  0  0  0  0  0  0  0  0
   -5.3083    0.7500    0.0000 N   0  0  0  0  0  0  0  0  0  0  0  0
   -3.8817    1.2135    0.0000 N   0  0  0  0  0  0  0  0  0  0  0  0
   -3.4182    2.6401    0.0000 C   0  0  0  0  0  0  0  0  0  0  0  0
   -1.9509    2.9520    0.0000 C   0  0  0  0  0  0  0  0  0  0  0  0
   -1.4874    4.3786    0.0000 C   0  0  0  0  0  0  0  0  0  0  0  0
   -2.4911    5.4933    0.0000 N   0  0  0  0  0  0  0  0  0  0  0  0
   -3.9583    5.1814    0.0000 N   0  0  0  0  0  0  0  0  0  0  0  0
   -4.4218    3.7548    0.0000 C   0  0  0  0  0  0  0  0  0  0  0  0
   -5.8891    3.4430    0.0000 C   0  0  0  0  0  0  0  0  0  0  0  0
   -6.4992    2.0726    0.0000 C   0  0  0  0  0  0  0  0  0  0  0  0
   -7.9910    2.2294    0.0000 C   0  0  0  0  0  0  0  0  0  0  0  0
   -8.3028    3.6967    0.0000 C   0  0  0  0  0  0  0  0  0  0  0  0
   -9.6731    4.3068    0.0000 C   0  0  0  0  0  0  0  0  0  0  0  0
  -10.8867    3.4251    0.0000 O   0  0  0  0  0  0  0  0  0  0  0  0
   -9.8299    5.7985    0.0000 N   0  0  0  0  0  0  0  0  0  0  0  0
  -11.2003    6.4086    0.0000 C   0  0  0  0  0  0  0  0  0  0  0  0
  -12.4993    5.6586    0.0000 N   0  0  0  0  0  0  0  0  0  0  0  0
  -13.6140    6.6623    0.0000 N   0  0  0  0  0  0  0  0  0  0  0  0
  -13.0039    8.0327    0.0000 N   0  0  0  0  0  0  0  0  0  0  0  0
  -11.5121    7.8759    0.0000 N   0  0  0  0  0  0  0  0  0  0  0  0
  -10.5084    8.9906    0.0000 C   0  0  0  0  0  0  0  0  0  0  0  0
   -9.0412    8.6787    0.0000 C   0  0  0  0  0  0  0  0  0  0  0  0
   -8.0375    9.7934    0.0000 C   0  0  0  0  0  0  0  0  0  0  0  0
   -8.5010   11.2200    0.0000 C   0  0  0  0  0  0  0  0  0  0  0  0
   -9.9683   11.5319    0.0000 C   0  0  0  0  0  0  0  0  0  0  0  0
  -10.9720   10.4172    0.0000 C   0  0  0  0  0  0  0  0  0  0  0  0
   -7.0038    4.4467    0.0000 C   0  0  0  0  0  0  0  0  0  0  0  0
   -6.8470    5.9384    0.0000 O   0  0  0  0  0  0  0  0  0  0  0  0
   -0.7500    1.2990    0.0000 N   0  0  0  0  0  0  0  0  0  0  0  0
    0.7500    1.2990    0.0000 C   0  0  0  0  0  0  0  0  0  0  0  0
    1.5000    2.5981    0.0000 O   0  0  0  0  0  0  0  0  0  0  0  0
  1  2  1  0
  2  3  1  0
  3  4  2  0
  4  5  1  0
  5  6  2  0
  6  7  1  0
  7  8  2  0
  8  9  1  0
  9 10  2  0
 10 11  1  0
 11 12  1  0
 12 13  2  0
 13 14  1  0
 14 15  2  0
 15 16  1  0
 16 17  2  0
 17 18  1  0
 18 19  2  0
 19 20  1  0
 20 21  2  0
 21 22  1  0
 22 23  2  0
 22 24  1  0
 24 25  1  0
 25 26  2  0
 26 27  1  0
 27 28  2  0
 28 29  1  0
 29 30  1  0
 30 31  2  0
 31 32  1  0
 32 33  2  0
 33 34  1  0
 34 35  2  0
 21 36  1  0
 36 37  2  0
  6 38  1  0
 38 39  1  0
 39 40  2  0
 39  3  1  0
 11  7  1  0
 17 12  1  0
 36 18  1  0
 29 25  1  0
 35 30  1  0
M  END
>  <Title>  (356) 
idAANRgen8

$$$$

     RDKit          2D

 35 40  0  0  0  0  0  0  0  0999 V2000
  -10.1624    4.2767    0.0000 C   0  0  0  0  0  0  0  0  0  0  0  0
   -8.9488    3.3950    0.0000 C   0  0  0  0  0  0  0  0  0  0  0  0
   -7.5785    4.0051    0.0000 C   0  0  0  0  0  0  0  0  0  0  0  0
   -6.3650    3.1235    0.0000 C   0  0  0  0  0  0  0  0  0  0  0  0
   -6.5218    1.6317    0.0000 C   0  0  0  0  0  0  0  0  0  0  0  0
   -5.3083    0.7500    0.0000 C   0  0  0  0  0  0  0  0  0  0  0  0
   -5.3083   -0.7500    0.0000 N   0  0  0  0  0  0  0  0  0  0  0  0
   -3.8817   -1.2135    0.0000 N   0  0  0  0  0  0  0  0  0  0  0  0
   -3.0000    0.0000    0.0000 N   0  0  0  0  0  0  0  0  0  0  0  0
   -3.8817    1.2135    0.0000 N   0  0  0  0  0  0  0  0  0  0  0  0
   -3.4182    2.6401    0.0000 C   0  0  0  0  0  0  0  0  0  0  0  0
   -4.2998    3.8536    0.0000 N   0  0  0  0  0  0  0  0  0  0  0  0
   -3.4182    5.0672    0.0000 N   0  0  0  0  0  0  0  0  0  0  0  0
   -1.9916    4.6036    0.0000 N   0  0  0  0  0  0  0  0  0  0  0  0
   -1.9916    3.1036    0.0000 N   0  0  0  0  0  0  0  0  0  0  0  0
   -0.7780    2.2220    0.0000 C   0  0  0  0  0  0  0  0  0  0  0  0
   -0.7780    0.7220    0.0000 C   0  0  0  0  0  0  0  0  0  0  0  0
    0.6485    0.2584    0.0000 C   0  0  0  0  0  0  0  0  0  0  0  0
    1.5302    1.4720    0.0000 C   0  0  0  0  0  0  0  0  0  0  0  0
    3.0302    1.4720    0.0000 C   0  0  0  0  0  0  0  0  0  0  0  0
    3.9119    0.2584    0.0000 N   0  0  0  0  0  0  0  0  0  0  0  0
    5.3385    0.7220    0.0000 N   0  0  0  0  0  0  0  0  0  0  0  0
    5.3385    2.2220    0.0000 N   0  0  0  0  0  0  0  0  0  0  0  0
    3.9119    2.6855    0.0000 N   0  0  0  0  0  0  0  0  0  0  0  0
    3.4484    4.1121    0.0000 C   0  0  0  0  0  0  0  0  0  0  0  0
    1.9812    4.4239    0.0000 C   0  0  0  0  0  0  0  0  0  0  0  0
    1.5176    5.8505    0.0000 C   0  0  0  0  0  0  0  0  0  0  0  0
    2.5213    6.9652    0.0000 C   0  0  0  0  0  0  0  0  0  0  0  0
    3.9885    6.6534    0.0000 C   0  0  0  0  0  0  0  0  0  0  0  0
    4.4521    5.2268    0.0000 C   0  0  0  0  0  0  0  0  0  0  0  0
    0.6485    2.6855    0.0000 C   0  0  0  0  0  0  0  0  0  0  0  0
    1.1121    4.1121    0.0000 O   0  0  0  0  0  0  0  0  0  0  0  0
   -7.8921    1.0216    0.0000 N   0  0  0  0  0  0  0  0  0  0  0  0
   -9.1056    1.9033    0.0000 C   0  0  0  0  0  0  0  0  0  0  0  0
  -10.4760    1.2931    0.0000 O   0  0  0  0  0  0  0  0  0  0  0  0
  1  2  1  0
  2  3  2  0
  3  4  1  0
  4  5  2  0
  5  6  1  0
  6  7  2  0
  7  8  1  0
  8  9  2  0
  9 10  1  0
 10 11  1  0
 11 12  1  0
 12 13  1  0
 13 14  2  0
 14 15  1  0
 15 16  1  0
 16 17  2  0
 17 18  1  0
 18 19  2  0
 19 20  1  0
 20 21  2  0
 21 22  1  0
 22 23  2  0
 23 24  1  0
 24 25  1  0
 25 26  2  0
 26 27  1  0
 27 28  2  0
 28 29  1  0
 29 30  2  0
 19 31  1  0
 31 32  2  0
  5 33  1  0
 33 34  1  0
 34 35  2  0
 34  2  1  0
 10  6  1  0
 15 11  1  0
 31 16  1  0
 24 20  1  0
 30 25  1  0
M  END
>  <Title>  (357) 
idAANSgen8

$$$$

     RDKit          2D

 33 37  0  0  0  0  0  0  0  0999 V2000
   -2.0559   10.8253    0.0000 C   0  0  0  0  0  0  0  0  0  0  0  0
   -2.9376    9.6118    0.0000 C   0  0  0  0  0  0  0  0  0  0  0  0
   -4.3962    9.9620    0.0000 C   0  0  0  0  0  0  0  0  0  0  0  0
   -5.6751    9.1782    0.0000 C   0  0  0  0  0  0  0  0  0  0  0  0
   -6.0253    7.7197    0.0000 C   0  0  0  0  0  0  0  0  0  0  0  0
   -5.2415    6.4407    0.0000 C   0  0  0  0  0  0  0  0  0  0  0  0
   -3.7830    6.0905    0.0000 C   0  0  0  0  0  0  0  0  0  0  0  0
   -3.5483    4.6090    0.0000 N   0  0  0  0  0  0  0  0  0  0  0  0
   -4.6090    3.5483    0.0000 C   0  0  0  0  0  0  0  0  0  0  0  0
   -3.9280    2.2118    0.0000 C   0  0  0  0  0  0  0  0  0  0  0  0
   -2.4465    2.4465    0.0000 C   0  0  0  0  0  0  0  0  0  0  0  0
   -2.2118    3.9280    0.0000 C   0  0  0  0  0  0  0  0  0  0  0  0
   -0.8753    4.6090    0.0000 C   0  0  0  0  0  0  0  0  0  0  0  0
   -0.6407    6.0905    0.0000 N   0  0  0  0  0  0  0  0  0  0  0  0
    0.8409    6.3252    0.0000 N   0  0  0  0  0  0  0  0  0  0  0  0
    1.5219    4.9887    0.0000 N   0  0  0  0  0  0  0  0  0  0  0  0
    0.4612    3.9280    0.0000 N   0  0  0  0  0  0  0  0  0  0  0  0
    0.6958    2.4465    0.0000 C   0  0  0  0  0  0  0  0  0  0  0  0
   -0.4699    1.5025    0.0000 C   0  0  0  0  0  0  0  0  0  0  0  0
   -0.2352    0.0210    0.0000 C   0  0  0  0  0  0  0  0  0  0  0  0
    1.1651   -0.5166    0.0000 C   0  0  0  0  0  0  0  0  0  0  0  0
    2.3309    0.4274    0.0000 C   0  0  0  0  0  0  0  0  0  0  0  0
    2.0962    1.9089    0.0000 C   0  0  0  0  0  0  0  0  0  0  0  0
    3.2619    2.8529    0.0000 C   0  0  0  0  0  0  0  0  0  0  0  0
    4.6623    2.3154    0.0000 C   0  0  0  0  0  0  0  0  0  0  0  0
    5.8280    3.2593    0.0000 C   0  0  0  0  0  0  0  0  0  0  0  0
    5.5934    4.7409    0.0000 C   0  0  0  0  0  0  0  0  0  0  0  0
    6.7591    5.6848    0.0000 C   0  0  0  0  0  0  0  0  0  0  0  0
    4.1930    5.2784    0.0000 C   0  0  0  0  0  0  0  0  0  0  0  0
    3.9583    6.7600    0.0000 O   0  0  0  0  0  0  0  0  0  0  0  0
    3.0273    4.3344    0.0000 N   0  0  0  0  0  0  0  0  0  0  0  0
   -2.5040    6.8743    0.0000 N   0  0  0  0  0  0  0  0  0  0  0  0
   -2.1539    8.3328    0.0000 C   0  0  0  0  0  0  0  0  0  0  0  0
  1  2  1  0
  2  3  2  0
  3  4  1  0
  4  5  2  0
  5  6  1  0
  6  7  2  0
  7  8  1  0
  8  9  1  0
  9 10  2  0
 10 11  1  0
 11 12  2  0
 12 13  1  0
 13 14  2  0
 14 15  1  0
 15 16  2  0
 16 17  1  0
 17 18  1  0
 18 19  2  0
 19 20  1  0
 20 21  2  0
 21 22  1  0
 22 23  2  0
 23 24  1  0
 24 25  2  0
 25 26  1  0
 26 27  2  0
 27 28  1  0
 27 29  1  0
 29 30  2  0
 29 31  1  0
  7 32  1  0
 32 33  2  0
 33  2  1  0
 12  8  1  0
 17 13  1  0
 23 18  1  0
 31 24  1  0
M  END
>  <Title>  (358) 
idAANTgen8

$$$$

     RDKit          2D

 38 43  0  0  0  0  0  0  0  0999 V2000
    3.0000    0.0000    0.0000 C   0  0  0  0  0  0  0  0  0  0  0  0
    1.5000    0.0000    0.0000 C   0  0  0  0  0  0  0  0  0  0  0  0
    0.7500    1.2990    0.0000 C   0  0  0  0  0  0  0  0  0  0  0  0
   -0.7500    1.2990    0.0000 C   0  0  0  0  0  0  0  0  0  0  0  0
   -1.5000    0.0000    0.0000 C   0  0  0  0  0  0  0  0  0  0  0  0
   -3.0000    0.0000    0.0000 C   0  0  0  0  0  0  0  0  0  0  0  0
   -3.8817   -1.2135    0.0000 N   0  0  0  0  0  0  0  0  0  0  0  0
   -5.3083   -0.7500    0.0000 N   0  0  0  0  0  0  0  0  0  0  0  0
   -5.3083    0.7500    0.0000 N   0  0  0  0  0  0  0  0  0  0  0  0
   -3.8817    1.2135    0.0000 N   0  0  0  0  0  0  0  0  0  0  0  0
   -3.4182    2.6401    0.0000 C   0  0  0  0  0  0  0  0  0  0  0  0
   -1.9509    2.9520    0.0000 C   0  0  0  0  0  0  0  0  0  0  0  0
   -1.4874    4.3786    0.0000 C   0  0  0  0  0  0  0  0  0  0  0  0
   -2.4911    5.4933    0.0000 C   0  0  0  0  0  0  0  0  0  0  0  0
   -2.0276    6.9199    0.0000 C   0  0  0  0  0  0  0  0  0  0  0  0
   -3.0313    8.0346    0.0000 O   0  0  0  0  0  0  0  0  0  0  0  0
   -0.5604    7.2317    0.0000 N   0  0  0  0  0  0  0  0  0  0  0  0
   -0.0968    8.6583    0.0000 C   0  0  0  0  0  0  0  0  0  0  0  0
   -0.9785    9.8718    0.0000 N   0  0  0  0  0  0  0  0  0  0  0  0
   -0.0968   11.0854    0.0000 N   0  0  0  0  0  0  0  0  0  0  0  0
    1.3298   10.6218    0.0000 N   0  0  0  0  0  0  0  0  0  0  0  0
    1.3298    9.1218    0.0000 N   0  0  0  0  0  0  0  0  0  0  0  0
    2.5433    8.2402    0.0000 C   0  0  0  0  0  0  0  0  0  0  0  0
    2.5433    6.7402    0.0000 N   0  0  0  0  0  0  0  0  0  0  0  0
    3.9699    6.2766    0.0000 N   0  0  0  0  0  0  0  0  0  0  0  0
    4.8515    7.4902    0.0000 N   0  0  0  0  0  0  0  0  0  0  0  0
    3.9699    8.7037    0.0000 N   0  0  0  0  0  0  0  0  0  0  0  0
    4.4334   10.1303    0.0000 C   0  0  0  0  0  0  0  0  0  0  0  0
    3.4297   11.2450    0.0000 C   0  0  0  0  0  0  0  0  0  0  0  0
    3.8932   12.6716    0.0000 C   0  0  0  0  0  0  0  0  0  0  0  0
    5.3604   12.9834    0.0000 C   0  0  0  0  0  0  0  0  0  0  0  0
    6.3641   11.8687    0.0000 C   0  0  0  0  0  0  0  0  0  0  0  0
    5.9006   10.4421    0.0000 C   0  0  0  0  0  0  0  0  0  0  0  0
   -3.9583    5.1814    0.0000 C   0  0  0  0  0  0  0  0  0  0  0  0
   -4.4218    3.7548    0.0000 C   0  0  0  0  0  0  0  0  0  0  0  0
   -0.7500   -1.2990    0.0000 C   0  0  0  0  0  0  0  0  0  0  0  0
   -1.5000   -2.5981    0.0000 O   0  0  0  0  0  0  0  0  0  0  0  0
    0.7500   -1.2990    0.0000 N   0  0  0  0  0  0  0  0  0  0  0  0
  1  2  1  0
  2  3  2  0
  3  4  1  0
  4  5  2  0
  5  6  1  0
  6  7  2  0
  7  8  1  0
  8  9  2  0
  9 10  1  0
 10 11  1  0
 11 12  2  0
 12 13  1  0
 13 14  2  0
 14 15  1  0
 15 16  2  0
 15 17  1  0
 17 18  1  0
 18 19  2  0
 19 20  1  0
 20 21  2  0
 21 22  1  0
 22 23  1  0
 23 24  2  0
 24 25  1  0
 25 26  2  0
 26 27  1  0
 27 28  1  0
 28 29  2  0
 29 30  1  0
 30 31  2  0
 31 32  1  0
 32 33  2  0
 14 34  1  0
 34 35  2  0
  5 36  1  0
 36 37  2  0
 36 38  1  0
 38  2  1  0
 10  6  1  0
 35 11  1  0
 22 18  1  0
 27 23  1  0
 33 28  1  0
M  END
>  <Title>  (359) 
idAANUgen8

$$$$

     RDKit          2D

 26 25  0  0  0  0  0  0  0  0999 V2000
    0.0000    0.0000    0.0000 C   0  0  0  0  0  0  0  0  0  0  0  0
    1.2990    0.7500    0.0000 C   0  0  0  0  0  0  0  0  0  0  0  0
    2.5981   -0.0000    0.0000 N   0  0  0  0  0  0  0  0  0  0  0  0
    3.8971    0.7500    0.0000 C   0  0  0  0  0  0  0  0  0  0  0  0
    5.1962   -0.0000    0.0000 C   0  0  0  0  0  0  0  0  0  0  0  0
    6.4952    0.7500    0.0000 C   0  0  0  0  0  0  0  0  0  0  0  0
    7.7942   -0.0000    0.0000 C   0  0  0  0  0  0  0  0  0  0  0  0
    9.0933    0.7500    0.0000 C   0  0  0  0  0  0  0  0  0  0  0  0
   10.3923   -0.0000    0.0000 C   0  0  0  0  0  0  0  0  0  0  0  0
   11.6913    0.7500    0.0000 C   0  0  0  0  0  0  0  0  0  0  0  0
   12.9904   -0.0000    0.0000 C   0  0  0  0  0  0  0  0  0  0  0  0
   14.2894    0.7500    0.0000 C   0  0  0  0  0  0  0  0  0  0  0  0
   15.5885   -0.0000    0.0000 C   0  0  0  0  0  0  0  0  0  0  0  0
   16.8875    0.7500    0.0000 C   0  0  0  0  0  0  0  0  0  0  0  0
   18.1865   -0.0000    0.0000 C   0  0  0  0  0  0  0  0  0  0  0  0
   19.4856    0.7500    0.0000 C   0  0  0  0  0  0  0  0  0  0  0  0
   20.7846   -0.0000    0.0000 C   0  0  0  0  0  0  0  0  0  0  0  0
   22.0836    0.7500    0.0000 C   0  0  0  0  0  0  0  0  0  0  0  0
   23.3827   -0.0000    0.0000 C   0  0  0  0  0  0  0  0  0  0  0  0
   24.6817    0.7500    0.0000 C   0  0  0  0  0  0  0  0  0  0  0  0
   25.9808   -0.0000    0.0000 C   0  0  0  0  0  0  0  0  0  0  0  0
   27.2798    0.7500    0.0000 C   0  0  0  0  0  0  0  0  0  0  0  0
   28.5788   -0.0000    0.0000 C   0  0  0  0  0  0  0  0  0  0  0  0
   29.8779    0.7500    0.0000 C   0  0  0  0  0  0  0  0  0  0  0  0
   31.1769   -0.0000    0.0000 C   0  0  0  0  0  0  0  0  0  0  0  0
   32.4760    0.7500    0.0000 O   0  0  0  0  0  0  0  0  0  0  0  0
  1  2  1  0
  2  3  1  0
  3  4  2  3
  4  5  1  0
  5  6  2  3
  6  7  1  0
  7  8  2  3
  8  9  1  0
  9 10  2  3
 10 11  1  0
 11 12  2  3
 12 13  1  0
 13 14  2  3
 14 15  1  0
 15 16  2  3
 16 17  1  0
 17 18  2  3
 18 19  1  0
 19 20  2  3
 20 21  1  0
 21 22  2  3
 22 23  1  0
 23 24  2  3
 24 25  1  0
 25 26  1  0
M  END
>  <Title>  (360) 
idAANVgen8

$$$$

     RDKit          2D

 40 45  0  0  0  0  0  0  0  0999 V2000
    4.6740   -4.8322    0.0000 C   0  0  0  0  0  0  0  0  0  0  0  0
    3.3037   -4.2221    0.0000 C   0  0  0  0  0  0  0  0  0  0  0  0
    2.0046   -4.9721    0.0000 C   0  0  0  0  0  0  0  0  0  0  0  0
    0.8899   -3.9684    0.0000 C   0  0  0  0  0  0  0  0  0  0  0  0
    1.5000   -2.5981    0.0000 C   0  0  0  0  0  0  0  0  0  0  0  0
    0.7500   -1.2990    0.0000 C   0  0  0  0  0  0  0  0  0  0  0  0
    1.5000    0.0000    0.0000 C   0  0  0  0  0  0  0  0  0  0  0  0
    0.7500    1.2990    0.0000 C   0  0  0  0  0  0  0  0  0  0  0  0
    1.5000    2.5981    0.0000 C   0  0  0  0  0  0  0  0  0  0  0  0
    0.7500    3.8971    0.0000 O   0  0  0  0  0  0  0  0  0  0  0  0
    3.0000    2.5981    0.0000 N   0  0  0  0  0  0  0  0  0  0  0  0
    3.7500    3.8971    0.0000 C   0  0  0  0  0  0  0  0  0  0  0  0
    3.1399    5.2674    0.0000 N   0  0  0  0  0  0  0  0  0  0  0  0
    4.2546    6.2711    0.0000 N   0  0  0  0  0  0  0  0  0  0  0  0
    5.5537    5.5211    0.0000 N   0  0  0  0  0  0  0  0  0  0  0  0
    5.2418    4.0539    0.0000 N   0  0  0  0  0  0  0  0  0  0  0  0
    6.2455    2.9392    0.0000 C   0  0  0  0  0  0  0  0  0  0  0  0
    5.7820    1.5126    0.0000 C   0  0  0  0  0  0  0  0  0  0  0  0
    6.7856    0.3979    0.0000 C   0  0  0  0  0  0  0  0  0  0  0  0
    8.2529    0.7098    0.0000 C   0  0  0  0  0  0  0  0  0  0  0  0
    8.7164    2.1363    0.0000 C   0  0  0  0  0  0  0  0  0  0  0  0
    7.7127    3.2511    0.0000 C   0  0  0  0  0  0  0  0  0  0  0  0
   -0.7500    1.2990    0.0000 C   0  0  0  0  0  0  0  0  0  0  0  0
   -1.5000    0.0000    0.0000 C   0  0  0  0  0  0  0  0  0  0  0  0
   -0.7500   -1.2990    0.0000 C   0  0  0  0  0  0  0  0  0  0  0  0
   -1.5000   -2.5981    0.0000 N   0  0  0  0  0  0  0  0  0  0  0  0
   -0.8899   -3.9684    0.0000 N   0  0  0  0  0  0  0  0  0  0  0  0
   -2.0046   -4.9721    0.0000 N   0  0  0  0  0  0  0  0  0  0  0  0
   -3.3037   -4.2221    0.0000 N   0  0  0  0  0  0  0  0  0  0  0  0
   -2.9918   -2.7549    0.0000 C   0  0  0  0  0  0  0  0  0  0  0  0
   -3.9955   -1.6402    0.0000 C   0  0  0  0  0  0  0  0  0  0  0  0
   -3.5320   -0.2136    0.0000 C   0  0  0  0  0  0  0  0  0  0  0  0
   -4.5356    0.9012    0.0000 C   0  0  0  0  0  0  0  0  0  0  0  0
   -6.0029    0.5893    0.0000 C   0  0  0  0  0  0  0  0  0  0  0  0
   -7.0066    1.7040    0.0000 C   0  0  0  0  0  0  0  0  0  0  0  0
   -6.4664   -0.8373    0.0000 C   0  0  0  0  0  0  0  0  0  0  0  0
   -7.9336   -1.1492    0.0000 O   0  0  0  0  0  0  0  0  0  0  0  0
   -5.4627   -1.9520    0.0000 N   0  0  0  0  0  0  0  0  0  0  0  0
    2.9918   -2.7549    0.0000 C   0  0  0  0  0  0  0  0  0  0  0  0
    3.9955   -1.6402    0.0000 O   0  0  0  0  0  0  0  0  0  0  0  0
  1  2  1  0
  2  3  2  0
  3  4  1  0
  4  5  2  0
  5  6  1  0
  6  7  2  0
  7  8  1  0
  8  9  1  0
  9 10  2  0
  9 11  1  0
 11 12  1  0
 12 13  2  0
 13 14  1  0
 14 15  2  0
 15 16  1  0
 16 17  1  0
 17 18  2  0
 18 19  1  0
 19 20  2  0
 20 21  1  0
 21 22  2  0
  8 23  2  0
 23 24  1  0
 24 25  2  0
 25 26  1  0
 26 27  1  0
 27 28  2  0
 28 29  1  0
 29 30  2  0
 30 31  1  0
 31 32  2  0
 32 33  1  0
 33 34  2  0
 34 35  1  0
 34 36  1  0
 36 37  2  0
 36 38  1  0
  5 39  1  0
 39 40  2  0
 39  2  1  0
 25  6  1  0
 30 26  1  0
 38 31  1  0
 16 12  1  0
 22 17  1  0
M  END
>  <Title>  (361) 
idAANWgen8

$$$$

     RDKit          2D

 56 63  0  0  0  0  0  0  0  0999 V2000
   -8.2500   -6.4952    0.0000 C   0  0  0  0  0  0  0  0  0  0  0  0
   -7.5000   -5.1962    0.0000 C   0  0  0  0  0  0  0  0  0  0  0  0
   -6.0000   -5.1962    0.0000 C   0  0  0  0  0  0  0  0  0  0  0  0
   -5.2500   -3.8971    0.0000 C   0  0  0  0  0  0  0  0  0  0  0  0
   -6.0000   -2.5981    0.0000 C   0  0  0  0  0  0  0  0  0  0  0  0
   -5.2500   -1.2990    0.0000 N   0  0  0  0  0  0  0  0  0  0  0  0
   -6.0000    0.0000    0.0000 C   0  0  0  0  0  0  0  0  0  0  0  0
   -5.2500    1.2990    0.0000 N   0  0  0  0  0  0  0  0  0  0  0  0
   -3.7500    1.2990    0.0000 N   0  0  0  0  0  0  0  0  0  0  0  0
   -3.0000    0.0000    0.0000 N   0  0  0  0  0  0  0  0  0  0  0  0
   -3.7500   -1.2990    0.0000 N   0  0  0  0  0  0  0  0  0  0  0  0
   -3.0000   -2.5981    0.0000 C   0  0  0  0  0  0  0  0  0  0  0  0
   -3.7500   -3.8971    0.0000 C   0  0  0  0  0  0  0  0  0  0  0  0
   -3.0000   -5.1962    0.0000 C   0  0  0  0  0  0  0  0  0  0  0  0
   -1.5000   -5.1962    0.0000 C   0  0  0  0  0  0  0  0  0  0  0  0
   -0.7500   -6.4952    0.0000 C   0  0  0  0  0  0  0  0  0  0  0  0
    0.7500   -6.4952    0.0000 O   0  0  0  0  0  0  0  0  0  0  0  0
   -1.5000   -7.7942    0.0000 N   0  0  0  0  0  0  0  0  0  0  0  0
   -0.7500   -9.0933    0.0000 C   0  0  0  0  0  0  0  0  0  0  0  0
    0.7500   -9.0933    0.0000 O   0  0  0  0  0  0  0  0  0  0  0  0
   -1.5000  -10.3923    0.0000 C   0  0  0  0  0  0  0  0  0  0  0  0
   -0.8899  -11.7626    0.0000 N   0  0  0  0  0  0  0  0  0  0  0  0
   -2.0046  -12.7663    0.0000 N   0  0  0  0  0  0  0  0  0  0  0  0
   -3.3037  -12.0163    0.0000 N   0  0  0  0  0  0  0  0  0  0  0  0
   -2.9918  -10.5491    0.0000 N   0  0  0  0  0  0  0  0  0  0  0  0
   -3.9955   -9.4344    0.0000 C   0  0  0  0  0  0  0  0  0  0  0  0
   -3.5320   -8.0078    0.0000 C   0  0  0  0  0  0  0  0  0  0  0  0
   -4.5356   -6.8931    0.0000 C   0  0  0  0  0  0  0  0  0  0  0  0
   -6.0029   -7.2049    0.0000 C   0  0  0  0  0  0  0  0  0  0  0  0
   -6.4664   -8.6315    0.0000 C   0  0  0  0  0  0  0  0  0  0  0  0
   -5.4627   -9.7462    0.0000 C   0  0  0  0  0  0  0  0  0  0  0  0
   -0.7500   -3.8971    0.0000 C   0  0  0  0  0  0  0  0  0  0  0  0
   -1.5000   -2.5981    0.0000 C   0  0  0  0  0  0  0  0  0  0  0  0
   -0.7500   -1.2990    0.0000 C   0  0  0  0  0  0  0  0  0  0  0  0
   -1.3601    0.0713    0.0000 C   0  0  0  0  0  0  0  0  0  0  0  0
   -0.2454    1.0750    0.0000 C   0  0  0  0  0  0  0  0  0  0  0  0
    1.0537    0.3250    0.0000 C   0  0  0  0  0  0  0  0  0  0  0  0
    2.4240    0.9351    0.0000 C   0  0  0  0  0  0  0  0  0  0  0  0
    2.5808    2.4269    0.0000 O   0  0  0  0  0  0  0  0  0  0  0  0
    3.6375    0.0534    0.0000 N   0  0  0  0  0  0  0  0  0  0  0  0
    5.0078    0.6635    0.0000 C   0  0  0  0  0  0  0  0  0  0  0  0
    5.3197    2.1307    0.0000 N   0  0  0  0  0  0  0  0  0  0  0  0
    6.8115    2.2875    0.0000 N   0  0  0  0  0  0  0  0  0  0  0  0
    7.4216    0.9172    0.0000 N   0  0  0  0  0  0  0  0  0  0  0  0
    6.3069   -0.0865    0.0000 N   0  0  0  0  0  0  0  0  0  0  0  0
    6.4636   -1.5783    0.0000 C   0  0  0  0  0  0  0  0  0  0  0  0
    5.2501   -2.4600    0.0000 C   0  0  0  0  0  0  0  0  0  0  0  0
    5.4069   -3.9517    0.0000 C   0  0  0  0  0  0  0  0  0  0  0  0
    6.7772   -4.5618    0.0000 C   0  0  0  0  0  0  0  0  0  0  0  0
    7.9908   -3.6802    0.0000 C   0  0  0  0  0  0  0  0  0  0  0  0
    7.8340   -2.1884    0.0000 C   0  0  0  0  0  0  0  0  0  0  0  0
    0.7418   -1.1422    0.0000 C   0  0  0  0  0  0  0  0  0  0  0  0
    1.7455   -2.2570    0.0000 O   0  0  0  0  0  0  0  0  0  0  0  0
   -7.5000   -2.5981    0.0000 N   0  0  0  0  0  0  0  0  0  0  0  0
   -8.2500   -3.8971    0.0000 C   0  0  0  0  0  0  0  0  0  0  0  0
   -9.7500   -3.8971    0.0000 O   0  0  0  0  0  0  0  0  0  0  0  0
  1  2  1  0
  2  3  2  0
  3  4  1  0
  4  5  2  0
  5  6  1  0
  6  7  1  0
  7  8  2  0
  8  9  1  0
  9 10  2  0
 10 11  1  0
 11 12  1  0
 12 13  2  0
 13 14  1  0
 14 15  2  0
 15 16  1  0
 16 17  2  0
 16 18  1  0
 18 19  1  0
 19 20  2  0
 19 21  1  0
 21 22  2  0
 22 23  1  0
 23 24  2  0
 24 25  1  0
 25 26  1  0
 26 27  2  0
 27 28  1  0
 28 29  2  0
 29 30  1  0
 30 31  2  0
 15 32  1  0
 32 33  2  0
 33 34  1  0
 34 35  2  0
 35 36  1  0
 36 37  2  0
 37 38  1  0
 38 39  2  0
 38 40  1  0
 40 41  1  0
 41 42  2  0
 42 43  1  0
 43 44  2  0
 44 45  1  0
 45 46  1  0
 46 47  2  0
 47 48  1  0
 48 49  2  0
 49 50  1  0
 50 51  2  0
 37 52  1  0
 52 53  2  0
  5 54  1  0
 54 55  1  0
 55 56  2  0
 55  2  1  0
 11  6  1  0
 33 12  1  0
 52 34  1  0
 25 21  1  0
 31 26  1  0
 45 41  1  0
 51 46  1  0
M  END
>  <Title>  (362) 
idAANXgen8

$$$$

     RDKit          2D

 35 40  0  0  0  0  0  0  0  0999 V2000
    3.0000    0.0000    0.0000 C   0  0  0  0  0  0  0  0  0  0  0  0
    1.5000    0.0000    0.0000 C   0  0  0  0  0  0  0  0  0  0  0  0
    0.7500   -1.2990    0.0000 N   0  0  0  0  0  0  0  0  0  0  0  0
   -0.7500   -1.2990    0.0000 C   0  0  0  0  0  0  0  0  0  0  0  0
   -1.5000   -2.5981    0.0000 C   0  0  0  0  0  0  0  0  0  0  0  0
   -0.8899   -3.9684    0.0000 N   0  0  0  0  0  0  0  0  0  0  0  0
   -2.0046   -4.9721    0.0000 N   0  0  0  0  0  0  0  0  0  0  0  0
   -3.3037   -4.2221    0.0000 N   0  0  0  0  0  0  0  0  0  0  0  0
   -2.9918   -2.7549    0.0000 N   0  0  0  0  0  0  0  0  0  0  0  0
   -3.9955   -1.6402    0.0000 C   0  0  0  0  0  0  0  0  0  0  0  0
   -3.5320   -0.2136    0.0000 C   0  0  0  0  0  0  0  0  0  0  0  0
   -4.5356    0.9012    0.0000 C   0  0  0  0  0  0  0  0  0  0  0  0
   -6.0029    0.5893    0.0000 C   0  0  0  0  0  0  0  0  0  0  0  0
   -6.4664   -0.8373    0.0000 C   0  0  0  0  0  0  0  0  0  0  0  0
   -5.4627   -1.9520    0.0000 C   0  0  0  0  0  0  0  0  0  0  0  0
   -5.9262   -3.3786    0.0000 C   0  0  0  0  0  0  0  0  0  0  0  0
   -5.0445   -4.5921    0.0000 C   0  0  0  0  0  0  0  0  0  0  0  0
   -5.9262   -5.8057    0.0000 C   0  0  0  0  0  0  0  0  0  0  0  0
   -7.3528   -5.3421    0.0000 C   0  0  0  0  0  0  0  0  0  0  0  0
   -8.5663   -6.2238    0.0000 C   0  0  0  0  0  0  0  0  0  0  0  0
   -8.5663   -7.7238    0.0000 N   0  0  0  0  0  0  0  0  0  0  0  0
   -9.9929   -8.1873    0.0000 N   0  0  0  0  0  0  0  0  0  0  0  0
  -10.8746   -6.9738    0.0000 N   0  0  0  0  0  0  0  0  0  0  0  0
   -9.9929   -5.7603    0.0000 N   0  0  0  0  0  0  0  0  0  0  0  0
  -10.4564   -4.3337    0.0000 C   0  0  0  0  0  0  0  0  0  0  0  0
   -9.4528   -3.2190    0.0000 C   0  0  0  0  0  0  0  0  0  0  0  0
   -9.9163   -1.7924    0.0000 C   0  0  0  0  0  0  0  0  0  0  0  0
  -11.3835   -1.4805    0.0000 C   0  0  0  0  0  0  0  0  0  0  0  0
  -12.3872   -2.5952    0.0000 C   0  0  0  0  0  0  0  0  0  0  0  0
  -11.9237   -4.0218    0.0000 C   0  0  0  0  0  0  0  0  0  0  0  0
   -7.3528   -3.8421    0.0000 C   0  0  0  0  0  0  0  0  0  0  0  0
   -8.5663   -2.9605    0.0000 N   0  0  0  0  0  0  0  0  0  0  0  0
   -1.5000    0.0000    0.0000 N   0  0  0  0  0  0  0  0  0  0  0  0
   -0.7500    1.2990    0.0000 C   0  0  0  0  0  0  0  0  0  0  0  0
    0.7500    1.2990    0.0000 N   0  0  0  0  0  0  0  0  0  0  0  0
  1  2  1  0
  2  3  2  0
  3  4  1  0
  4  5  1  0
  5  6  2  0
  6  7  1  0
  7  8  2  0
  8  9  1  0
  9 10  1  0
 10 11  1  0
 11 12  1  0
 12 13  1  0
 13 14  1  0
 14 15  1  0
 15 16  1  0
 16 17  2  0
 17 18  1  0
 18 19  2  0
 19 20  1  0
 20 21  2  0
 21 22  1  0
 22 23  2  0
 23 24  1  0
 24 25  1  0
 25 26  2  0
 26 27  1  0
 27 28  2  0
 28 29  1  0
 29 30  2  0
 19 31  1  0
 31 32  2  0
  4 33  1  0
 33 34  1  0
 34 35  1  0
 35  2  1  0
  9  5  1  0
 15 10  1  0
 31 16  1  0
 24 20  1  0
 30 25  1  0
M  END
>  <Title>  (363) 
idAANYgen8

$$$$

     RDKit          2D

 30 30  0  0  0  0  0  0  0  0999 V2000
    8.1986    0.0000    0.0000 C   0  0  0  0  0  0  0  0  0  0  0  0
    6.6986    0.0000    0.0000 C   0  0  0  0  0  0  0  0  0  0  0  0
    6.5306   -1.4906    0.0000 C   0  0  0  0  0  0  0  0  0  0  0  0
    6.0352   -2.9064    0.0000 C   0  0  0  0  0  0  0  0  0  0  0  0
    5.2371   -4.1765    0.0000 C   0  0  0  0  0  0  0  0  0  0  0  0
    4.1765   -5.2371    0.0000 C   0  0  0  0  0  0  0  0  0  0  0  0
    2.9064   -6.0352    0.0000 C   0  0  0  0  0  0  0  0  0  0  0  0
    1.4906   -6.5306    0.0000 C   0  0  0  0  0  0  0  0  0  0  0  0
   -0.0000   -6.6986    0.0000 C   0  0  0  0  0  0  0  0  0  0  0  0
   -1.4906   -6.5306    0.0000 C   0  0  0  0  0  0  0  0  0  0  0  0
   -2.9064   -6.0352    0.0000 C   0  0  0  0  0  0  0  0  0  0  0  0
   -4.1765   -5.2371    0.0000 C   0  0  0  0  0  0  0  0  0  0  0  0
   -5.2371   -4.1765    0.0000 C   0  0  0  0  0  0  0  0  0  0  0  0
   -6.0352   -2.9064    0.0000 C   0  0  0  0  0  0  0  0  0  0  0  0
   -6.5306   -1.4906    0.0000 C   0  0  0  0  0  0  0  0  0  0  0  0
   -6.6986    0.0000    0.0000 C   0  0  0  0  0  0  0  0  0  0  0  0
   -6.5306    1.4906    0.0000 C   0  0  0  0  0  0  0  0  0  0  0  0
   -6.0352    2.9064    0.0000 C   0  0  0  0  0  0  0  0  0  0  0  0
   -5.2371    4.1765    0.0000 C   0  0  0  0  0  0  0  0  0  0  0  0
   -4.1765    5.2371    0.0000 C   0  0  0  0  0  0  0  0  0  0  0  0
   -2.9064    6.0352    0.0000 C   0  0  0  0  0  0  0  0  0  0  0  0
   -1.4906    6.5306    0.0000 C   0  0  0  0  0  0  0  0  0  0  0  0
    0.0000    6.6986    0.0000 C   0  0  0  0  0  0  0  0  0  0  0  0
    1.4906    6.5306    0.0000 C   0  0  0  0  0  0  0  0  0  0  0  0
    2.9064    6.0352    0.0000 C   0  0  0  0  0  0  0  0  0  0  0  0
    4.1765    5.2371    0.0000 C   0  0  0  0  0  0  0  0  0  0  0  0
    5.2371    4.1765    0.0000 C   0  0  0  0  0  0  0  0  0  0  0  0
    6.4099    5.1117    0.0000 O   0  0  0  0  0  0  0  0  0  0  0  0
    6.0352    2.9064    0.0000 C   0  0  0  0  0  0  0  0  0  0  0  0
    6.5306    1.4906    0.0000 C   0  0  0  0  0  0  0  0  0  0  0  0
  1  2  1  0
  2  3  2  0
  3  4  1  0
  4  5  2  0
  5  6  2  0
  6  7  2  0
  7  8  1  0
  8  9  2  0
  9 10  1  0
 10 11  2  0
 11 12  1  0
 12 13  2  0
 13 14  1  0
 14 15  2  0
 15 16  1  0
 16 17  2  0
 17 18  1  0
 18 19  2  0
 19 20  1  0
 20 21  2  0
 21 22  1  0
 22 23  2  0
 23 24  1  0
 24 25  2  0
 25 26  1  0
 26 27  2  0
 27 28  1  0
 27 29  1  0
 29 30  2  0
 30  2  1  0
M  END
>  <Title>  (364) 
idAANZgen8

$$$$

     RDKit          2D

 16 16  0  0  0  0  0  0  0  0999 V2000
    5.6205   -1.2990    0.0000 O   0  0  0  0  0  0  0  0  0  0  0  0
    4.8705    0.0000    0.0000 C   0  0  0  0  0  0  0  0  0  0  0  0
    3.3705    0.0000    0.0000 C   0  0  0  0  0  0  0  0  0  0  0  0
    3.0367   -1.4624    0.0000 C   0  0  0  0  0  0  0  0  0  0  0  0
    2.1015   -2.6351    0.0000 C   0  0  0  0  0  0  0  0  0  0  0  0
    0.7500   -3.2860    0.0000 C   0  0  0  0  0  0  0  0  0  0  0  0
   -0.7500   -3.2860    0.0000 C   0  0  0  0  0  0  0  0  0  0  0  0
   -2.1015   -2.6351    0.0000 C   0  0  0  0  0  0  0  0  0  0  0  0
   -3.0367   -1.4624    0.0000 C   0  0  0  0  0  0  0  0  0  0  0  0
   -3.3705    0.0000    0.0000 C   0  0  0  0  0  0  0  0  0  0  0  0
   -3.0367    1.4624    0.0000 C   0  0  0  0  0  0  0  0  0  0  0  0
   -2.1015    2.6351    0.0000 C   0  0  0  0  0  0  0  0  0  0  0  0
   -0.7500    3.2860    0.0000 C   0  0  0  0  0  0  0  0  0  0  0  0
    0.7500    3.2860    0.0000 O   0  0  0  0  0  0  0  0  0  0  0  0
    2.1015    2.6351    0.0000 C   0  0  0  0  0  0  0  0  0  0  0  0
    3.0367    1.4624    0.0000 C   0  0  0  0  0  0  0  0  0  0  0  0
  1  2  1  0
  2  3  1  0
  3  4  2  0
  4  5  1  0
  5  6  2  0
  6  7  1  0
  7  8  2  0
  8  9  1  0
  9 10  2  0
 10 11  1  0
 11 12  2  0
 12 13  1  0
 13 14  1  0
 14 15  1  0
 15 16  1  0
 16  3  1  0
M  END
>  <Title>  (365) 
idAAOAgen8

$$$$

     RDKit          2D

 65 73  0  0  0  0  0  0  0  0999 V2000
   -4.3774  -12.4966    0.0000 C   0  0  0  0  0  0  0  0  0  0  0  0
   -4.2989  -10.9986    0.0000 O   0  0  0  0  0  0  0  0  0  0  0  0
   -2.9624  -10.3176    0.0000 C   0  0  0  0  0  0  0  0  0  0  0  0
   -1.7044  -11.1346    0.0000 C   0  0  0  0  0  0  0  0  0  0  0  0
   -0.3679  -10.4536    0.0000 C   0  0  0  0  0  0  0  0  0  0  0  0
   -0.2894   -8.9557    0.0000 C   0  0  0  0  0  0  0  0  0  0  0  0
    1.0471   -8.2747    0.0000 C   0  0  0  0  0  0  0  0  0  0  0  0
    2.3837   -8.9557    0.0000 C   0  0  0  0  0  0  0  0  0  0  0  0
    3.4443   -7.8950    0.0000 N   0  0  0  0  0  0  0  0  0  0  0  0
    2.7633   -6.5585    0.0000 N   0  0  0  0  0  0  0  0  0  0  0  0
    1.2818   -6.7931    0.0000 N   0  0  0  0  0  0  0  0  0  0  0  0
    0.2211   -5.7325    0.0000 C   0  0  0  0  0  0  0  0  0  0  0  0
   -1.2278   -6.1207    0.0000 C   0  0  0  0  0  0  0  0  0  0  0  0
   -2.2884   -5.0601    0.0000 C   0  0  0  0  0  0  0  0  0  0  0  0
   -1.9002   -3.6112    0.0000 C   0  0  0  0  0  0  0  0  0  0  0  0
   -2.9608   -2.5505    0.0000 C   0  0  0  0  0  0  0  0  0  0  0  0
   -2.5726   -1.1016    0.0000 C   0  0  0  0  0  0  0  0  0  0  0  0
   -3.6333   -0.0410    0.0000 C   0  0  0  0  0  0  0  0  0  0  0  0
   -5.0822   -0.4292    0.0000 C   0  0  0  0  0  0  0  0  0  0  0  0
   -6.1428    0.6315    0.0000 C   0  0  0  0  0  0  0  0  0  0  0  0
   -5.7546    2.0804    0.0000 C   0  0  0  0  0  0  0  0  0  0  0  0
   -6.8153    3.1410    0.0000 C   0  0  0  0  0  0  0  0  0  0  0  0
   -8.2641    2.7528    0.0000 C   0  0  0  0  0  0  0  0  0  0  0  0
   -8.6524    1.3039    0.0000 C   0  0  0  0  0  0  0  0  0  0  0  0
   -7.5917    0.2432    0.0000 C   0  0  0  0  0  0  0  0  0  0  0  0
   -5.4704   -1.8781    0.0000 C   0  0  0  0  0  0  0  0  0  0  0  0
   -4.4097   -2.9387    0.0000 C   0  0  0  0  0  0  0  0  0  0  0  0
   -0.4513   -3.2229    0.0000 C   0  0  0  0  0  0  0  0  0  0  0  0
    0.6094   -4.2836    0.0000 C   0  0  0  0  0  0  0  0  0  0  0  0
    2.0583   -3.8954    0.0000 C   0  0  0  0  0  0  0  0  0  0  0  0
    3.1189   -4.9560    0.0000 C   0  0  0  0  0  0  0  0  0  0  0  0
    4.5678   -4.5678    0.0000 C   0  0  0  0  0  0  0  0  0  0  0  0
    4.9560   -3.1189    0.0000 C   0  0  0  0  0  0  0  0  0  0  0  0
    3.8954   -2.0583    0.0000 C   0  0  0  0  0  0  0  0  0  0  0  0
    2.4465   -2.4465    0.0000 C   0  0  0  0  0  0  0  0  0  0  0  0
    1.3858   -1.3858    0.0000 C   0  0  0  0  0  0  0  0  0  0  0  0
   -0.0000   -1.9598    0.0000 C   0  0  0  0  0  0  0  0  0  0  0  0
   -1.3858   -1.3858    0.0000 C   0  0  0  0  0  0  0  0  0  0  0  0
   -1.9598   -0.0000    0.0000 C   0  0  0  0  0  0  0  0  0  0  0  0
   -3.4598   -0.0000    0.0000 C   0  0  0  0  0  0  0  0  0  0  0  0
   -4.2098    1.2990    0.0000 O   0  0  0  0  0  0  0  0  0  0  0  0
   -4.2098   -1.2990    0.0000 N   0  0  0  0  0  0  0  0  0  0  0  0
   -5.6653   -0.9361    0.0000 O   0  0  0  0  0  0  0  0  0  0  0  0
   -1.3858    1.3858    0.0000 C   0  0  0  0  0  0  0  0  0  0  0  0
   -2.4465    2.4465    0.0000 C   0  0  0  0  0  0  0  0  0  0  0  0
   -0.0000    1.9598    0.0000 C   0  0  0  0  0  0  0  0  0  0  0  0
    1.3858    1.3858    0.0000 C   0  0  0  0  0  0  0  0  0  0  0  0
    1.9598    0.0000    0.0000 C   0  0  0  0  0  0  0  0  0  0  0  0
    3.4598    0.0000    0.0000 C   0  0  0  0  0  0  0  0  0  0  0  0
    4.2098    1.2990    0.0000 C   0  0  0  0  0  0  0  0  0  0  0  0
    5.7098    1.2990    0.0000 C   0  0  0  0  0  0  0  0  0  0  0  0
    6.4598    0.0000    0.0000 C   0  0  0  0  0  0  0  0  0  0  0  0
    7.9598    0.0000    0.0000 C   0  0  0  0  0  0  0  0  0  0  0  0
    8.7098   -1.2990    0.0000 O   0  0  0  0  0  0  0  0  0  0  0  0
    8.7098    1.2990    0.0000 N   0  0  0  0  0  0  0  0  0  0  0  0
   10.2098    1.2990    0.0000 C   0  0  0  0  0  0  0  0  0  0  0  0
   10.9598    2.5981    0.0000 C   0  0  0  0  0  0  0  0  0  0  0  0
   12.4598    2.5981    0.0000 C   0  0  0  0  0  0  0  0  0  0  0  0
   13.2098    1.2990    0.0000 C   0  0  0  0  0  0  0  0  0  0  0  0
   12.4598    0.0000    0.0000 C   0  0  0  0  0  0  0  0  0  0  0  0
   10.9598    0.0000    0.0000 C   0  0  0  0  0  0  0  0  0  0  0  0
    5.7098   -1.2990    0.0000 C   0  0  0  0  0  0  0  0  0  0  0  0
    4.2098   -1.2990    0.0000 C   0  0  0  0  0  0  0  0  0  0  0  0
   -1.5474   -8.1387    0.0000 C   0  0  0  0  0  0  0  0  0  0  0  0
   -2.8839   -8.8197    0.0000 C   0  0  0  0  0  0  0  0  0  0  0  0
  1  2  1  0
  2  3  1  0
  3  4  2  0
  4  5  1  0
  5  6  2  0
  6  7  1  0
  7  8  2  0
  8  9  1  0
  9 10  2  0
 10 11  1  0
 11 12  1  0
 12 13  2  0
 13 14  1  0
 14 15  2  0
 15 16  1  0
 16 17  2  0
 17 18  1  0
 18 19  2  0
 19 20  1  0
 20 21  2  0
 21 22  1  0
 22 23  2  0
 23 24  1  0
 24 25  2  0
 19 26  1  0
 26 27  2  0
 15 28  1  0
 28 29  2  0
 29 30  1  0
 30 31  2  0
 31 32  1  0
 32 33  2  0
 33 34  1  0
 34 35  2  0
 35 36  1  0
 36 37  2  0
 37 38  1  0
 38 39  2  0
 39 40  1  0
 40 41  2  0
 40 42  1  0
 42 43  1  0
 39 44  1  0
 44 45  1  0
 44 46  2  0
 46 47  1  0
 47 48  2  0
 48 49  1  0
 49 50  2  0
 50 51  1  0
 51 52  2  0
 52 53  1  0
 53 54  2  0
 53 55  1  0
 55 56  1  0
 56 57  2  0
 57 58  1  0
 58 59  2  0
 59 60  1  0
 60 61  2  0
 52 62  1  0
 62 63  2  0
  6 64  1  0
 64 65  2  0
 65  3  1  0
 11  7  1  0
 29 12  1  0
 35 30  1  0
 48 36  1  0
 63 49  1  0
 27 16  1  0
 61 56  1  0
 25 20  1  0
M  END
>  <Title>  (366) 
idAAOBgen8

$$$$

     RDKit          2D

 38 39  0  0  0  0  0  0  0  0999 V2000
   -3.9609    2.0335    0.0000 C   0  0  0  0  0  0  0  0  0  0  0  0
   -2.9772    3.1659    0.0000 C   0  0  0  0  0  0  0  0  0  0  0  0
   -4.0077    4.2559    0.0000 C   0  0  0  0  0  0  0  0  0  0  0  0
   -4.8057    5.5260    0.0000 C   0  0  0  0  0  0  0  0  0  0  0  0
   -5.3406    6.9274    0.0000 C   0  0  0  0  0  0  0  0  0  0  0  0
   -5.5919    8.4062    0.0000 C   0  0  0  0  0  0  0  0  0  0  0  0
   -5.5498    9.9056    0.0000 C   0  0  0  0  0  0  0  0  0  0  0  0
   -5.2160   11.3680    0.0000 C   0  0  0  0  0  0  0  0  0  0  0  0
   -4.6034   12.7371    0.0000 C   0  0  0  0  0  0  0  0  0  0  0  0
   -3.7354   13.9605    0.0000 C   0  0  0  0  0  0  0  0  0  0  0  0
   -2.6454   14.9910    0.0000 C   0  0  0  0  0  0  0  0  0  0  0  0
   -1.3753   15.7890    0.0000 C   0  0  0  0  0  0  0  0  0  0  0  0
    0.0261   16.3240    0.0000 C   0  0  0  0  0  0  0  0  0  0  0  0
    1.5049   16.5752    0.0000 C   0  0  0  0  0  0  0  0  0  0  0  0
    3.0043   16.5331    0.0000 C   0  0  0  0  0  0  0  0  0  0  0  0
    4.4667   16.1994    0.0000 C   0  0  0  0  0  0  0  0  0  0  0  0
    5.8359   15.5867    0.0000 C   0  0  0  0  0  0  0  0  0  0  0  0
    7.0592   14.7187    0.0000 C   0  0  0  0  0  0  0  0  0  0  0  0
    8.0897   13.6287    0.0000 C   0  0  0  0  0  0  0  0  0  0  0  0
    8.8877   12.3586    0.0000 C   0  0  0  0  0  0  0  0  0  0  0  0
    9.4227   10.9572    0.0000 C   0  0  0  0  0  0  0  0  0  0  0  0
    9.6739    9.4784    0.0000 C   0  0  0  0  0  0  0  0  0  0  0  0
    9.6319    7.9790    0.0000 C   0  0  0  0  0  0  0  0  0  0  0  0
    9.2981    6.5166    0.0000 C   0  0  0  0  0  0  0  0  0  0  0  0
    8.6854    5.1475    0.0000 C   0  0  0  0  0  0  0  0  0  0  0  0
    7.8174    3.9241    0.0000 C   0  0  0  0  0  0  0  0  0  0  0  0
    6.7274    2.8936    0.0000 C   0  0  0  0  0  0  0  0  0  0  0  0
    5.4573    2.0956    0.0000 C   0  0  0  0  0  0  0  0  0  0  0  0
    4.0560    1.5606    0.0000 C   0  0  0  0  0  0  0  0  0  0  0  0
    2.5772    1.3094    0.0000 C   0  0  0  0  0  0  0  0  0  0  0  0
    1.0777    1.3515    0.0000 C   0  0  0  0  0  0  0  0  0  0  0  0
    1.7286    0.0000    0.0000 C   0  0  0  0  0  0  0  0  0  0  0  0
    1.0777   -1.3515    0.0000 C   0  0  0  0  0  0  0  0  0  0  0  0
   -0.3846   -1.6852    0.0000 C   0  0  0  0  0  0  0  0  0  0  0  0
   -1.5574   -0.7500    0.0000 C   0  0  0  0  0  0  0  0  0  0  0  0
   -1.5574    0.7500    0.0000 C   0  0  0  0  0  0  0  0  0  0  0  0
   -0.3846    1.6852    0.0000 C   0  0  0  0  0  0  0  0  0  0  0  0
   -1.7538    2.2979    0.0000 N   0  0  0  0  0  0  0  0  0  0  0  0
  1  2  1  0
  2  3  2  0
  3  4  1  0
  4  5  2  0
  5  6  1  0
  6  7  2  0
  7  8  1  0
  8  9  2  0
  9 10  1  0
 10 11  2  0
 11 12  1  0
 12 13  2  0
 13 14  1  0
 14 15  2  0
 15 16  1  0
 16 17  2  0
 17 18  1  0
 18 19  2  0
 19 20  1  0
 20 21  2  0
 21 22  1  0
 22 23  2  0
 23 24  1  0
 24 25  2  0
 25 26  1  0
 26 27  2  0
 27 28  1  0
 28 29  2  0
 29 30  1  0
 30 31  2  0
 31 32  1  0
 32 33  2  0
 33 34  1  0
 34 35  2  0
 35 36  1  0
 36 37  2  0
 37 38  1  0
 38  2  1  0
 37 31  1  0
M  END
>  <Title>  (367) 
idAAOCgen8

$$$$

     RDKit          2D

 41 47  0  0  0  0  0  0  0  0999 V2000
   -4.8274   10.7735    0.0000 C   0  0  0  0  0  0  0  0  0  0  0  0
   -5.2909    9.3469    0.0000 C   0  0  0  0  0  0  0  0  0  0  0  0
   -4.2872    8.2322    0.0000 C   0  0  0  0  0  0  0  0  0  0  0  0
   -4.7508    6.8056    0.0000 C   0  0  0  0  0  0  0  0  0  0  0  0
   -6.2180    6.4937    0.0000 C   0  0  0  0  0  0  0  0  0  0  0  0
   -6.6815    5.0672    0.0000 C   0  0  0  0  0  0  0  0  0  0  0  0
   -8.1081    4.6036    0.0000 N   0  0  0  0  0  0  0  0  0  0  0  0
   -8.1081    3.1036    0.0000 N   0  0  0  0  0  0  0  0  0  0  0  0
   -6.6815    2.6401    0.0000 N   0  0  0  0  0  0  0  0  0  0  0  0
   -5.7998    3.8536    0.0000 N   0  0  0  0  0  0  0  0  0  0  0  0
   -4.2998    3.8536    0.0000 C   0  0  0  0  0  0  0  0  0  0  0  0
   -3.4182    2.6401    0.0000 C   0  0  0  0  0  0  0  0  0  0  0  0
   -1.9916    3.1036    0.0000 C   0  0  0  0  0  0  0  0  0  0  0  0
   -1.9916    4.6036    0.0000 C   0  0  0  0  0  0  0  0  0  0  0  0
   -0.7780    5.4853    0.0000 C   0  0  0  0  0  0  0  0  0  0  0  0
   -0.7780    6.9853    0.0000 C   0  0  0  0  0  0  0  0  0  0  0  0
    0.6485    7.4488    0.0000 N   0  0  0  0  0  0  0  0  0  0  0  0
    1.5302    6.2353    0.0000 N   0  0  0  0  0  0  0  0  0  0  0  0
    0.6485    5.0218    0.0000 N   0  0  0  0  0  0  0  0  0  0  0  0
    1.1121    3.5952    0.0000 C   0  0  0  0  0  0  0  0  0  0  0  0
    0.1084    2.4805    0.0000 C   0  0  0  0  0  0  0  0  0  0  0  0
    0.5719    1.0539    0.0000 C   0  0  0  0  0  0  0  0  0  0  0  0
    2.0391    0.7420    0.0000 C   0  0  0  0  0  0  0  0  0  0  0  0
    3.0428    1.8568    0.0000 C   0  0  0  0  0  0  0  0  0  0  0  0
    2.5793    3.2833    0.0000 C   0  0  0  0  0  0  0  0  0  0  0  0
    3.5830    4.3981    0.0000 C   0  0  0  0  0  0  0  0  0  0  0  0
    3.1195    5.8246    0.0000 C   0  0  0  0  0  0  0  0  0  0  0  0
    4.1232    6.9394    0.0000 C   0  0  0  0  0  0  0  0  0  0  0  0
    5.5904    6.6275    0.0000 C   0  0  0  0  0  0  0  0  0  0  0  0
    6.0539    5.2009    0.0000 C   0  0  0  0  0  0  0  0  0  0  0  0
    5.0502    4.0862    0.0000 C   0  0  0  0  0  0  0  0  0  0  0  0
    5.5137    2.6596    0.0000 C   0  0  0  0  0  0  0  0  0  0  0  0
    6.9810    2.3477    0.0000 C   0  0  0  0  0  0  0  0  0  0  0  0
    7.4445    0.9211    0.0000 C   0  0  0  0  0  0  0  0  0  0  0  0
    6.4408   -0.1936    0.0000 C   0  0  0  0  0  0  0  0  0  0  0  0
    4.9736    0.1183    0.0000 C   0  0  0  0  0  0  0  0  0  0  0  0
    4.5100    1.5449    0.0000 C   0  0  0  0  0  0  0  0  0  0  0  0
   -3.4182    5.0672    0.0000 C   0  0  0  0  0  0  0  0  0  0  0  0
   -3.8817    6.4937    0.0000 O   0  0  0  0  0  0  0  0  0  0  0  0
   -7.2217    7.6085    0.0000 C   0  0  0  0  0  0  0  0  0  0  0  0
   -6.7582    9.0350    0.0000 C   0  0  0  0  0  0  0  0  0  0  0  0
  1  2  1  0
  2  3  2  0
  3  4  1  0
  4  5  2  0
  5  6  1  0
  6  7  2  0
  7  8  1  0
  8  9  2  0
  9 10  1  0
 10 11  1  0
 11 12  2  0
 12 13  1  0
 13 14  2  0
 14 15  1  0
 15 16  2  0
 16 17  1  0
 17 18  2  0
 18 19  1  0
 19 20  1  0
 20 21  2  0
 21 22  1  0
 22 23  2  0
 23 24  1  0
 24 25  2  0
 25 26  1  0
 26 27  2  0
 27 28  1  0
 28 29  2  0
 29 30  1  0
 30 31  2  0
 31 32  1  0
 32 33  2  0
 33 34  1  0
 34 35  2  0
 35 36  1  0
 36 37  2  0
 14 38  1  0
 38 39  2  0
  5 40  1  0
 40 41  2  0
 41  2  1  0
 10  6  1  0
 38 11  1  0
 19 15  1  0
 25 20  1  0
 31 26  1  0
 37 32  1  0
M  END
>  <Title>  (368) 
idAAODgen8

$$$$

     RDKit          2D

 51 58  0  0  0  0  0  0  0  0999 V2000
   -0.3285   -7.0743    0.0000 C   0  0  0  0  0  0  0  0  0  0  0  0
    1.0623   -6.5124    0.0000 C   0  0  0  0  0  0  0  0  0  0  0  0
    1.2710   -5.0270    0.0000 C   0  0  0  0  0  0  0  0  0  0  0  0
    2.6618   -4.4650    0.0000 C   0  0  0  0  0  0  0  0  0  0  0  0
    3.8438   -5.3885    0.0000 C   0  0  0  0  0  0  0  0  0  0  0  0
    5.2346   -4.8266    0.0000 C   0  0  0  0  0  0  0  0  0  0  0  0
    6.4166   -5.7501    0.0000 C   0  0  0  0  0  0  0  0  0  0  0  0
    7.8074   -5.1882    0.0000 N   0  0  0  0  0  0  0  0  0  0  0  0
    8.0162   -3.7028    0.0000 N   0  0  0  0  0  0  0  0  0  0  0  0
    6.8341   -2.7793    0.0000 N   0  0  0  0  0  0  0  0  0  0  0  0
    5.4434   -3.3412    0.0000 N   0  0  0  0  0  0  0  0  0  0  0  0
    4.2614   -2.4177    0.0000 C   0  0  0  0  0  0  0  0  0  0  0  0
    4.7744   -1.0082    0.0000 C   0  0  0  0  0  0  0  0  0  0  0  0
    4.3609    0.4337    0.0000 C   0  0  0  0  0  0  0  0  0  0  0  0
    3.1789    1.3572    0.0000 C   0  0  0  0  0  0  0  0  0  0  0  0
    3.6919    2.7667    0.0000 C   0  0  0  0  0  0  0  0  0  0  0  0
    2.7278    3.9158    0.0000 C   0  0  0  0  0  0  0  0  0  0  0  0
    3.2408    5.3253    0.0000 C   0  0  0  0  0  0  0  0  0  0  0  0
    4.7180    5.5858    0.0000 C   0  0  0  0  0  0  0  0  0  0  0  0
    5.2310    6.9953    0.0000 C   0  0  0  0  0  0  0  0  0  0  0  0
    6.6729    7.4088    0.0000 N   0  0  0  0  0  0  0  0  0  0  0  0
    6.7253    8.9079    0.0000 N   0  0  0  0  0  0  0  0  0  0  0  0
    5.3157    9.4209    0.0000 N   0  0  0  0  0  0  0  0  0  0  0  0
    4.3922    8.2389    0.0000 N   0  0  0  0  0  0  0  0  0  0  0  0
    2.8932    8.2913    0.0000 C   0  0  0  0  0  0  0  0  0  0  0  0
    2.0983    7.0192    0.0000 C   0  0  0  0  0  0  0  0  0  0  0  0
    0.5992    7.0715    0.0000 C   0  0  0  0  0  0  0  0  0  0  0  0
   -0.1050    8.3959    0.0000 C   0  0  0  0  0  0  0  0  0  0  0  0
    0.6899    9.6680    0.0000 C   0  0  0  0  0  0  0  0  0  0  0  0
    2.1889    9.6157    0.0000 C   0  0  0  0  0  0  0  0  0  0  0  0
    5.6822    4.4367    0.0000 C   0  0  0  0  0  0  0  0  0  0  0  0
    5.1692    3.0272    0.0000 N   0  0  0  0  0  0  0  0  0  0  0  0
    1.6798    1.4095    0.0000 C   0  0  0  0  0  0  0  0  0  0  0  0
    2.1929    0.0000    0.0000 C   0  0  0  0  0  0  0  0  0  0  0  0
    1.6798   -1.4095    0.0000 C   0  0  0  0  0  0  0  0  0  0  0  0
    0.3808   -2.1595    0.0000 C   0  0  0  0  0  0  0  0  0  0  0  0
    1.5187   -3.2042    0.0000 C   0  0  0  0  0  0  0  0  0  0  0  0
    3.0178   -3.2565    0.0000 C   0  0  0  0  0  0  0  0  0  0  0  0
   -1.0964   -1.8991    0.0000 N   0  0  0  0  0  0  0  0  0  0  0  0
   -2.0606   -0.7500    0.0000 N   0  0  0  0  0  0  0  0  0  0  0  0
   -2.0606    0.7500    0.0000 N   0  0  0  0  0  0  0  0  0  0  0  0
   -1.0964    1.8991    0.0000 N   0  0  0  0  0  0  0  0  0  0  0  0
    0.3808    2.1595    0.0000 N   0  0  0  0  0  0  0  0  0  0  0  0
    0.6413    3.6368    0.0000 C   0  0  0  0  0  0  0  0  0  0  0  0
    2.0508    4.1498    0.0000 C   0  0  0  0  0  0  0  0  0  0  0  0
    2.3113    5.6270    0.0000 C   0  0  0  0  0  0  0  0  0  0  0  0
    1.1622    6.5912    0.0000 C   0  0  0  0  0  0  0  0  0  0  0  0
   -0.2473    6.0781    0.0000 C   0  0  0  0  0  0  0  0  0  0  0  0
   -0.5078    4.6009    0.0000 C   0  0  0  0  0  0  0  0  0  0  0  0
    3.6351   -6.8739    0.0000 N   0  0  0  0  0  0  0  0  0  0  0  0
    2.2443   -7.4359    0.0000 C   0  0  0  0  0  0  0  0  0  0  0  0
  1  2  1  0
  2  3  2  0
  3  4  1  0
  4  5  2  0
  5  6  1  0
  6  7  1  0
  7  8  1  0
  8  9  1  0
  9 10  2  0
 10 11  1  0
 11 12  1  0
 12 13  2  0
 13 14  1  0
 14 15  2  0
 15 16  1  0
 16 17  2  0
 17 18  1  0
 18 19  2  0
 19 20  1  0
 20 21  2  0
 21 22  1  0
 22 23  2  0
 23 24  1  0
 24 25  1  0
 25 26  2  0
 26 27  1  0
 27 28  2  0
 28 29  1  0
 29 30  2  0
 19 31  1  0
 31 32  2  0
 15 33  1  0
 33 34  2  0
 34 35  1  0
 35 36  2  0
 36 37  1  0
 37 38  2  0
 36 39  1  0
 39 40  2  0
 40 41  1  0
 41 42  2  0
 42 43  1  0
 43 44  1  0
 44 45  2  0
 45 46  1  0
 46 47  2  0
 47 48  1  0
 48 49  2  0
  5 50  1  0
 50 51  1  0
 51  2  1  0
 11  6  1  0
 38 12  1  0
 49 44  1  0
 32 16  1  0
 43 33  1  0
 24 20  1  0
 30 25  1  0
M  END
>  <Title>  (369) 
idAAOEgen8

$$$$

     RDKit          2D

 56 62  0  0  0  0  0  0  0  0999 V2000
    4.3978    0.0000    0.0000 C   0  0  0  0  0  0  0  0  0  0  0  0
    2.8978    0.0000    0.0000 C   0  0  0  0  0  0  0  0  0  0  0  0
    2.5095   -1.4489    0.0000 C   0  0  0  0  0  0  0  0  0  0  0  0
    1.4489   -2.5095    0.0000 C   0  0  0  0  0  0  0  0  0  0  0  0
   -0.0000   -2.8978    0.0000 C   0  0  0  0  0  0  0  0  0  0  0  0
   -1.4489   -2.5095    0.0000 C   0  0  0  0  0  0  0  0  0  0  0  0
   -2.5095   -1.4489    0.0000 C   0  0  0  0  0  0  0  0  0  0  0  0
   -2.8978    0.0000    0.0000 C   0  0  0  0  0  0  0  0  0  0  0  0
   -2.5095    1.4489    0.0000 C   0  0  0  0  0  0  0  0  0  0  0  0
   -1.4489    2.5095    0.0000 C   0  0  0  0  0  0  0  0  0  0  0  0
    0.0000    2.8978    0.0000 C   0  0  0  0  0  0  0  0  0  0  0  0
    0.0000    4.3978    0.0000 C   0  0  0  0  0  0  0  0  0  0  0  0
   -1.2990    5.1478    0.0000 O   0  0  0  0  0  0  0  0  0  0  0  0
    1.2990    5.1478    0.0000 N   0  0  0  0  0  0  0  0  0  0  0  0
    1.2990    6.6478    0.0000 C   0  0  0  0  0  0  0  0  0  0  0  0
    0.0855    7.5295    0.0000 N   0  0  0  0  0  0  0  0  0  0  0  0
    0.5490    8.9560    0.0000 N   0  0  0  0  0  0  0  0  0  0  0  0
    2.0490    8.9560    0.0000 N   0  0  0  0  0  0  0  0  0  0  0  0
    2.5126    7.5295    0.0000 N   0  0  0  0  0  0  0  0  0  0  0  0
    3.9391    7.0659    0.0000 C   0  0  0  0  0  0  0  0  0  0  0  0
    4.2510    5.5987    0.0000 C   0  0  0  0  0  0  0  0  0  0  0  0
    5.6776    5.1352    0.0000 C   0  0  0  0  0  0  0  0  0  0  0  0
    6.7923    6.1389    0.0000 C   0  0  0  0  0  0  0  0  0  0  0  0
    6.4805    7.6061    0.0000 C   0  0  0  0  0  0  0  0  0  0  0  0
    5.0539    8.0696    0.0000 C   0  0  0  0  0  0  0  0  0  0  0  0
    4.7420    9.5368    0.0000 C   0  0  0  0  0  0  0  0  0  0  0  0
    3.3154   10.0004    0.0000 C   0  0  0  0  0  0  0  0  0  0  0  0
    3.0035   11.4676    0.0000 C   0  0  0  0  0  0  0  0  0  0  0  0
    4.1183   12.4713    0.0000 C   0  0  0  0  0  0  0  0  0  0  0  0
    3.8064   13.9385    0.0000 C   0  0  0  0  0  0  0  0  0  0  0  0
    4.9211   14.9422    0.0000 O   0  0  0  0  0  0  0  0  0  0  0  0
    2.3798   14.4020    0.0000 N   0  0  0  0  0  0  0  0  0  0  0  0
    2.0679   15.8693    0.0000 C   0  0  0  0  0  0  0  0  0  0  0  0
    3.0716   16.9840    0.0000 N   0  0  0  0  0  0  0  0  0  0  0  0
    2.3216   18.2830    0.0000 N   0  0  0  0  0  0  0  0  0  0  0  0
    0.8544   17.9711    0.0000 N   0  0  0  0  0  0  0  0  0  0  0  0
    0.6976   16.4794    0.0000 N   0  0  0  0  0  0  0  0  0  0  0  0
   -0.6014   15.7294    0.0000 C   0  0  0  0  0  0  0  0  0  0  0  0
   -0.6014   14.2294    0.0000 C   0  0  0  0  0  0  0  0  0  0  0  0
   -1.9005   13.4794    0.0000 C   0  0  0  0  0  0  0  0  0  0  0  0
   -3.1995   14.2294    0.0000 C   0  0  0  0  0  0  0  0  0  0  0  0
   -3.1995   15.7294    0.0000 N   0  0  0  0  0  0  0  0  0  0  0  0
   -1.9005   16.4794    0.0000 C   0  0  0  0  0  0  0  0  0  0  0  0
    5.5448   12.0078    0.0000 C   0  0  0  0  0  0  0  0  0  0  0  0
    5.8567   10.5405    0.0000 C   0  0  0  0  0  0  0  0  0  0  0  0
    7.2833   10.0770    0.0000 N   0  0  0  0  0  0  0  0  0  0  0  0
    8.2575   11.2176    0.0000 N   0  0  0  0  0  0  0  0  0  0  0  0
    9.7528   11.3353    0.0000 N   0  0  0  0  0  0  0  0  0  0  0  0
   10.8935   10.3611    0.0000 N   0  0  0  0  0  0  0  0  0  0  0  0
   11.0111    8.8658    0.0000 N   0  0  0  0  0  0  0  0  0  0  0  0
   10.0370    7.7252    0.0000 N   0  0  0  0  0  0  0  0  0  0  0  0
    8.5416    7.6075    0.0000 N   0  0  0  0  0  0  0  0  0  0  0  0
    7.4010    8.5816    0.0000 N   0  0  0  0  0  0  0  0  0  0  0  0
    1.4489    2.5095    0.0000 C   0  0  0  0  0  0  0  0  0  0  0  0
    2.1989    3.8086    0.0000 O   0  0  0  0  0  0  0  0  0  0  0  0
    2.5095    1.4489    0.0000 N   0  0  0  0  0  0  0  0  0  0  0  0
  1  2  1  0
  2  3  2  0
  3  4  1  0
  4  5  2  0
  5  6  1  0
  6  7  2  0
  7  8  1  0
  8  9  2  0
  9 10  1  0
 10 11  2  0
 11 12  1  0
 12 13  2  0
 12 14  1  0
 14 15  1  0
 15 16  2  0
 16 17  1  0
 17 18  2  0
 18 19  1  0
 19 20  1  0
 20 21  1  0
 21 22  1  0
 22 23  1  0
 23 24  1  0
 24 25  1  0
 25 26  1  0
 26 27  2  0
 27 28  1  0
 28 29  2  0
 29 30  1  0
 30 31  2  0
 30 32  1  0
 32 33  1  0
 33 34  2  0
 34 35  1  0
 35 36  2  0
 36 37  1  0
 37 38  1  0
 38 39  2  0
 39 40  1  0
 40 41  2  0
 41 42  1  0
 42 43  2  0
 29 44  1  0
 44 45  2  0
 45 46  1  0
 46 47  1  0
 47 48  2  0
 48 49  1  0
 49 50  2  0
 50 51  1  0
 51 52  2  0
 52 53  1  0
 11 54  1  0
 54 55  2  0
 54 56  1  0
 56  2  1  0
 19 15  1  0
 25 20  1  0
 45 26  1  0
 53 46  1  0
 37 33  1  0
 43 38  1  0
M  END
>  <Title>  (370) 
idAAOFgen8

$$$$

     RDKit          2D

 30 30  0  0  0  0  0  0  0  0999 V2000
    8.1986    0.0000    0.0000 C   0  0  0  0  0  0  0  0  0  0  0  0
    6.6986    0.0000    0.0000 C   0  0  0  0  0  0  0  0  0  0  0  0
    6.5306   -1.4906    0.0000 C   0  0  0  0  0  0  0  0  0  0  0  0
    6.0352   -2.9064    0.0000 C   0  0  0  0  0  0  0  0  0  0  0  0
    5.2371   -4.1765    0.0000 C   0  0  0  0  0  0  0  0  0  0  0  0
    6.4099   -5.1117    0.0000 F   0  0  0  0  0  0  0  0  0  0  0  0
    4.1765   -5.2371    0.0000 C   0  0  0  0  0  0  0  0  0  0  0  0
    2.9064   -6.0352    0.0000 C   0  0  0  0  0  0  0  0  0  0  0  0
    1.4906   -6.5306    0.0000 C   0  0  0  0  0  0  0  0  0  0  0  0
   -0.0000   -6.6986    0.0000 C   0  0  0  0  0  0  0  0  0  0  0  0
   -1.4906   -6.5306    0.0000 C   0  0  0  0  0  0  0  0  0  0  0  0
   -2.9064   -6.0352    0.0000 C   0  0  0  0  0  0  0  0  0  0  0  0
   -4.1765   -5.2371    0.0000 C   0  0  0  0  0  0  0  0  0  0  0  0
   -5.2371   -4.1765    0.0000 C   0  0  0  0  0  0  0  0  0  0  0  0
   -6.0352   -2.9064    0.0000 C   0  0  0  0  0  0  0  0  0  0  0  0
   -6.5306   -1.4906    0.0000 C   0  0  0  0  0  0  0  0  0  0  0  0
   -6.6986    0.0000    0.0000 C   0  0  0  0  0  0  0  0  0  0  0  0
   -6.5306    1.4906    0.0000 C   0  0  0  0  0  0  0  0  0  0  0  0
   -6.0352    2.9064    0.0000 C   0  0  0  0  0  0  0  0  0  0  0  0
   -5.2371    4.1765    0.0000 C   0  0  0  0  0  0  0  0  0  0  0  0
   -4.1765    5.2371    0.0000 C   0  0  0  0  0  0  0  0  0  0  0  0
   -2.9064    6.0352    0.0000 C   0  0  0  0  0  0  0  0  0  0  0  0
   -1.4906    6.5306    0.0000 C   0  0  0  0  0  0  0  0  0  0  0  0
    0.0000    6.6986    0.0000 C   0  0  0  0  0  0  0  0  0  0  0  0
    1.4906    6.5306    0.0000 C   0  0  0  0  0  0  0  0  0  0  0  0
    2.9064    6.0352    0.0000 C   0  0  0  0  0  0  0  0  0  0  0  0
    4.1765    5.2371    0.0000 C   0  0  0  0  0  0  0  0  0  0  0  0
    5.2371    4.1765    0.0000 C   0  0  0  0  0  0  0  0  0  0  0  0
    6.0352    2.9064    0.0000 C   0  0  0  0  0  0  0  0  0  0  0  0
    6.5306    1.4906    0.0000 C   0  0  0  0  0  0  0  0  0  0  0  0
  1  2  1  0
  2  3  2  0
  3  4  1  0
  4  5  2  0
  5  6  1  0
  5  7  1  0
  7  8  2  0
  8  9  1  0
  9 10  2  0
 10 11  1  0
 11 12  2  0
 12 13  1  0
 13 14  2  0
 14 15  1  0
 15 16  2  0
 16 17  1  0
 17 18  2  0
 18 19  1  0
 19 20  2  0
 20 21  1  0
 21 22  2  0
 22 23  1  0
 23 24  2  0
 24 25  1  0
 25 26  2  0
 26 27  1  0
 27 28  2  0
 28 29  1  0
 29 30  2  0
 30  2  1  0
M  END
>  <Title>  (371) 
idAAOGgen8

$$$$

     RDKit          2D

 31 35  0  0  0  0  0  0  0  0999 V2000
    3.7500   -1.2990    0.0000 C   0  0  0  0  0  0  0  0  0  0  0  0
    3.0000    0.0000    0.0000 O   0  0  0  0  0  0  0  0  0  0  0  0
    1.5000    0.0000    0.0000 C   0  0  0  0  0  0  0  0  0  0  0  0
    0.7500   -1.2990    0.0000 C   0  0  0  0  0  0  0  0  0  0  0  0
   -0.7500   -1.2990    0.0000 C   0  0  0  0  0  0  0  0  0  0  0  0
   -1.5000    0.0000    0.0000 C   0  0  0  0  0  0  0  0  0  0  0  0
   -3.0000    0.0000    0.0000 C   0  0  0  0  0  0  0  0  0  0  0  0
   -3.8817   -1.2135    0.0000 N   0  0  0  0  0  0  0  0  0  0  0  0
   -5.3083   -0.7500    0.0000 N   0  0  0  0  0  0  0  0  0  0  0  0
   -5.3083    0.7500    0.0000 N   0  0  0  0  0  0  0  0  0  0  0  0
   -3.8817    1.2135    0.0000 N   0  0  0  0  0  0  0  0  0  0  0  0
   -3.4182    2.6401    0.0000 C   0  0  0  0  0  0  0  0  0  0  0  0
   -1.9509    2.9520    0.0000 C   0  0  0  0  0  0  0  0  0  0  0  0
   -1.4874    4.3786    0.0000 C   0  0  0  0  0  0  0  0  0  0  0  0
   -2.4911    5.4933    0.0000 N   0  0  0  0  0  0  0  0  0  0  0  0
   -3.9583    5.1814    0.0000 N   0  0  0  0  0  0  0  0  0  0  0  0
   -4.4218    3.7548    0.0000 C   0  0  0  0  0  0  0  0  0  0  0  0
   -5.8891    3.4430    0.0000 C   0  0  0  0  0  0  0  0  0  0  0  0
   -6.4992    2.0726    0.0000 N   0  0  0  0  0  0  0  0  0  0  0  0
   -7.9910    2.2294    0.0000 N   0  0  0  0  0  0  0  0  0  0  0  0
   -8.3028    3.6967    0.0000 N   0  0  0  0  0  0  0  0  0  0  0  0
   -7.0038    4.4467    0.0000 N   0  0  0  0  0  0  0  0  0  0  0  0
   -6.8470    5.9384    0.0000 C   0  0  0  0  0  0  0  0  0  0  0  0
   -5.4767    6.5485    0.0000 C   0  0  0  0  0  0  0  0  0  0  0  0
   -5.3199    8.0403    0.0000 C   0  0  0  0  0  0  0  0  0  0  0  0
   -6.5334    8.9220    0.0000 C   0  0  0  0  0  0  0  0  0  0  0  0
   -7.9037    8.3119    0.0000 C   0  0  0  0  0  0  0  0  0  0  0  0
   -8.0605    6.8201    0.0000 C   0  0  0  0  0  0  0  0  0  0  0  0
   -0.7500    1.2990    0.0000 C   0  0  0  0  0  0  0  0  0  0  0  0
    0.7500    1.2990    0.0000 C   0  0  0  0  0  0  0  0  0  0  0  0
    1.5000    2.5981    0.0000 C   0  0  0  0  0  0  0  0  0  0  0  0
  1  2  1  0
  2  3  1  0
  3  4  2  0
  4  5  1  0
  5  6  2  0
  6  7  1  0
  7  8  2  0
  8  9  1  0
  9 10  2  0
 10 11  1  0
 11 12  1  0
 12 13  2  0
 13 14  1  0
 14 15  2  0
 15 16  1  0
 16 17  2  0
 17 18  1  0
 18 19  2  0
 19 20  1  0
 20 21  2  0
 21 22  1  0
 22 23  1  0
 23 24  2  0
 24 25  1  0
 25 26  2  0
 26 27  1  0
 27 28  2  0
  6 29  1  0
 29 30  2  0
 30 31  1  0
 30  3  1  0
 11  7  1  0
 17 12  1  0
 22 18  1  0
 28 23  1  0
M  END
>  <Title>  (372) 
idAAOHgen8

$$$$

     RDKit          2D

 30 33  0  0  0  0  0  0  0  0999 V2000
    3.7500    1.2990    0.0000 C   0  0  0  0  0  0  0  0  0  0  0  0
    3.0000    0.0000    0.0000 O   0  0  0  0  0  0  0  0  0  0  0  0
    1.5000    0.0000    0.0000 C   0  0  0  0  0  0  0  0  0  0  0  0
    0.7500    1.2990    0.0000 C   0  0  0  0  0  0  0  0  0  0  0  0
   -0.7500    1.2990    0.0000 C   0  0  0  0  0  0  0  0  0  0  0  0
   -1.5000    0.0000    0.0000 C   0  0  0  0  0  0  0  0  0  0  0  0
   -3.0000    0.0000    0.0000 C   0  0  0  0  0  0  0  0  0  0  0  0
   -3.8817   -1.2135    0.0000 N   0  0  0  0  0  0  0  0  0  0  0  0
   -5.3083   -0.7500    0.0000 N   0  0  0  0  0  0  0  0  0  0  0  0
   -5.3083    0.7500    0.0000 N   0  0  0  0  0  0  0  0  0  0  0  0
   -3.8817    1.2135    0.0000 N   0  0  0  0  0  0  0  0  0  0  0  0
   -3.4182    2.6401    0.0000 C   0  0  0  0  0  0  0  0  0  0  0  0
   -1.9509    2.9520    0.0000 N   0  0  0  0  0  0  0  0  0  0  0  0
   -1.4874    4.3786    0.0000 N   0  0  0  0  0  0  0  0  0  0  0  0
   -2.4911    5.4933    0.0000 N   0  0  0  0  0  0  0  0  0  0  0  0
   -3.9583    5.1814    0.0000 N   0  0  0  0  0  0  0  0  0  0  0  0
   -4.4218    3.7548    0.0000 N   0  0  0  0  0  0  0  0  0  0  0  0
   -5.8891    3.4430    0.0000 C   0  0  0  0  0  0  0  0  0  0  0  0
   -6.8928    4.5577    0.0000 C   0  0  0  0  0  0  0  0  0  0  0  0
   -8.3600    4.2458    0.0000 C   0  0  0  0  0  0  0  0  0  0  0  0
   -8.8235    2.8192    0.0000 C   0  0  0  0  0  0  0  0  0  0  0  0
  -10.2907    2.5074    0.0000 C   0  0  0  0  0  0  0  0  0  0  0  0
  -10.7543    1.0808    0.0000 O   0  0  0  0  0  0  0  0  0  0  0  0
  -11.2944    3.6221    0.0000 N   0  0  0  0  0  0  0  0  0  0  0  0
  -12.7617    3.3102    0.0000 O   0  0  0  0  0  0  0  0  0  0  0  0
   -7.8198    1.7045    0.0000 C   0  0  0  0  0  0  0  0  0  0  0  0
   -6.3526    2.0164    0.0000 C   0  0  0  0  0  0  0  0  0  0  0  0
   -0.7500   -1.2990    0.0000 C   0  0  0  0  0  0  0  0  0  0  0  0
   -1.5000   -2.5981    0.0000 O   0  0  0  0  0  0  0  0  0  0  0  0
    0.7500   -1.2990    0.0000 N   0  0  0  0  0  0  0  0  0  0  0  0
  1  2  1  0
  2  3  1  0
  3  4  2  0
  4  5  1  0
  5  6  2  0
  6  7  1  0
  7  8  2  0
  8  9  1  0
  9 10  2  0
 10 11  1  0
 11 12  1  0
 12 13  1  0
 13 14  2  0
 14 15  1  0
 15 16  2  0
 16 17  1  0
 17 18  1  0
 18 19  2  0
 19 20  1  0
 20 21  2  0
 21 22  1  0
 22 23  2  0
 22 24  1  0
 24 25  1  0
 21 26  1  0
 26 27  1  0
  6 28  1  0
 28 29  2  0
 28 30  1  0
 30  3  1  0
 11  7  1  0
 17 12  1  0
 27 18  1  0
M  END
>  <Title>  (373) 
idAAOIgen8

$$$$

     RDKit          2D

 20 21  0  0  0  0  0  0  0  0999 V2000
    6.9035    4.3471    0.0000 C   0  0  0  0  0  0  0  0  0  0  0  0
    5.4856    3.8578    0.0000 C   0  0  0  0  0  0  0  0  0  0  0  0
    5.3950    2.3605    0.0000 C   0  0  0  0  0  0  0  0  0  0  0  0
    4.2722    1.3658    0.0000 C   0  0  0  0  0  0  0  0  0  0  0  0
    2.7750    1.4564    0.0000 C   0  0  0  0  0  0  0  0  0  0  0  0
    3.1339    0.0000    0.0000 C   0  0  0  0  0  0  0  0  0  0  0  0
    2.7750   -1.4564    0.0000 C   0  0  0  0  0  0  0  0  0  0  0  0
    1.7803   -2.5792    0.0000 C   0  0  0  0  0  0  0  0  0  0  0  0
    0.3778   -3.1111    0.0000 C   0  0  0  0  0  0  0  0  0  0  0  0
   -1.1113   -2.9303    0.0000 C   0  0  0  0  0  0  0  0  0  0  0  0
   -2.3458   -2.0782    0.0000 C   0  0  0  0  0  0  0  0  0  0  0  0
   -3.0429   -0.7500    0.0000 C   0  0  0  0  0  0  0  0  0  0  0  0
   -3.0429    0.7500    0.0000 C   0  0  0  0  0  0  0  0  0  0  0  0
   -2.3458    2.0782    0.0000 C   0  0  0  0  0  0  0  0  0  0  0  0
   -1.1113    2.9303    0.0000 C   0  0  0  0  0  0  0  0  0  0  0  0
    0.3778    3.1111    0.0000 C   0  0  0  0  0  0  0  0  0  0  0  0
    1.7803    2.5792    0.0000 C   0  0  0  0  0  0  0  0  0  0  0  0
    1.8708    4.0764    0.0000 C   0  0  0  0  0  0  0  0  0  0  0  0
    2.9936    5.0711    0.0000 C   0  0  0  0  0  0  0  0  0  0  0  0
    4.4909    4.9806    0.0000 C   0  0  0  0  0  0  0  0  0  0  0  0
  1  2  1  0
  2  3  2  0
  3  4  1  0
  4  5  2  0
  5  6  1  0
  6  7  2  0
  7  8  1  0
  8  9  2  0
  9 10  1  0
 10 11  2  0
 11 12  1  0
 12 13  2  0
 13 14  1  0
 14 15  2  0
 15 16  1  0
 16 17  2  0
 17 18  1  0
 18 19  1  0
 19 20  1  0
 20  2  1  0
 17  5  1  0
M  END
>  <Title>  (374) 
idAAOJgen8

$$$$

     RDKit          2D

 37 41  0  0  0  0  0  0  0  0999 V2000
    3.9271    0.0000    0.0000 C   0  0  0  0  0  0  0  0  0  0  0  0
    2.4271    0.0000    0.0000 C   0  0  0  0  0  0  0  0  0  0  0  0
    1.9635   -1.4266    0.0000 C   0  0  0  0  0  0  0  0  0  0  0  0
    0.7500   -2.3083    0.0000 C   0  0  0  0  0  0  0  0  0  0  0  0
   -0.7500   -2.3083    0.0000 C   0  0  0  0  0  0  0  0  0  0  0  0
   -1.9635   -1.4266    0.0000 C   0  0  0  0  0  0  0  0  0  0  0  0
   -2.4271    0.0000    0.0000 C   0  0  0  0  0  0  0  0  0  0  0  0
   -1.9635    1.4266    0.0000 C   0  0  0  0  0  0  0  0  0  0  0  0
   -0.7500    2.3083    0.0000 C   0  0  0  0  0  0  0  0  0  0  0  0
   -1.2135    3.7348    0.0000 C   0  0  0  0  0  0  0  0  0  0  0  0
   -2.6807    4.0467    0.0000 O   0  0  0  0  0  0  0  0  0  0  0  0
   -0.2098    4.8496    0.0000 N   0  0  0  0  0  0  0  0  0  0  0  0
   -0.6734    6.2761    0.0000 C   0  0  0  0  0  0  0  0  0  0  0  0
   -2.0999    6.7397    0.0000 N   0  0  0  0  0  0  0  0  0  0  0  0
   -2.0999    8.2397    0.0000 N   0  0  0  0  0  0  0  0  0  0  0  0
   -0.6734    8.7032    0.0000 N   0  0  0  0  0  0  0  0  0  0  0  0
    0.2083    7.4897    0.0000 N   0  0  0  0  0  0  0  0  0  0  0  0
    1.7083    7.4897    0.0000 C   0  0  0  0  0  0  0  0  0  0  0  0
    2.4583    6.1906    0.0000 C   0  0  0  0  0  0  0  0  0  0  0  0
    3.9583    6.1906    0.0000 C   0  0  0  0  0  0  0  0  0  0  0  0
    4.7083    7.4897    0.0000 C   0  0  0  0  0  0  0  0  0  0  0  0
    6.2083    7.4897    0.0000 C   0  0  0  0  0  0  0  0  0  0  0  0
    7.0900    8.7032    0.0000 N   0  0  0  0  0  0  0  0  0  0  0  0
    8.5166    8.2397    0.0000 N   0  0  0  0  0  0  0  0  0  0  0  0
    8.5166    6.7397    0.0000 N   0  0  0  0  0  0  0  0  0  0  0  0
    7.0900    6.2761    0.0000 N   0  0  0  0  0  0  0  0  0  0  0  0
    6.6265    4.8496    0.0000 C   0  0  0  0  0  0  0  0  0  0  0  0
    5.1593    4.5377    0.0000 C   0  0  0  0  0  0  0  0  0  0  0  0
    4.6957    3.1111    0.0000 C   0  0  0  0  0  0  0  0  0  0  0  0
    5.6994    1.9964    0.0000 C   0  0  0  0  0  0  0  0  0  0  0  0
    7.1666    2.3083    0.0000 C   0  0  0  0  0  0  0  0  0  0  0  0
    7.6302    3.7348    0.0000 C   0  0  0  0  0  0  0  0  0  0  0  0
    3.9583    8.7887    0.0000 C   0  0  0  0  0  0  0  0  0  0  0  0
    2.4583    8.7887    0.0000 C   0  0  0  0  0  0  0  0  0  0  0  0
    0.7500    2.3083    0.0000 C   0  0  0  0  0  0  0  0  0  0  0  0
    1.2135    3.7348    0.0000 O   0  0  0  0  0  0  0  0  0  0  0  0
    1.9635    1.4266    0.0000 O   0  0  0  0  0  0  0  0  0  0  0  0
  1  2  1  0
  2  3  2  0
  3  4  1  0
  4  5  2  0
  5  6  1  0
  6  7  2  0
  7  8  1  0
  8  9  2  0
  9 10  1  0
 10 11  2  0
 10 12  1  0
 12 13  1  0
 13 14  2  0
 14 15  1  0
 15 16  2  0
 16 17  1  0
 17 18  1  0
 18 19  2  0
 19 20  1  0
 20 21  2  0
 21 22  1  0
 22 23  2  0
 23 24  1  0
 24 25  2  0
 25 26  1  0
 26 27  1  0
 27 28  2  0
 28 29  1  0
 29 30  2  0
 30 31  1  0
 31 32  2  0
 21 33  1  0
 33 34  2  0
  9 35  1  0
 35 36  2  0
 35 37  1  0
 37  2  1  0
 17 13  1  0
 34 18  1  0
 26 22  1  0
 32 27  1  0
M  END
>  <Title>  (375) 
idAAOKgen8

$$$$

     RDKit          2D

 25 26  0  0  0  0  0  0  0  0999 V2000
    9.3147    2.4610    0.0000 C   0  0  0  0  0  0  0  0  0  0  0  0
    8.3654    3.6223    0.0000 O   0  0  0  0  0  0  0  0  0  0  0  0
    6.8849    3.3808    0.0000 C   0  0  0  0  0  0  0  0  0  0  0  0
    6.5415    1.9207    0.0000 C   0  0  0  0  0  0  0  0  0  0  0  0
    5.2662    1.1310    0.0000 C   0  0  0  0  0  0  0  0  0  0  0  0
    3.8060    1.4745    0.0000 C   0  0  0  0  0  0  0  0  0  0  0  0
    4.0816    0.0000    0.0000 C   0  0  0  0  0  0  0  0  0  0  0  0
    3.8060   -1.4745    0.0000 C   0  0  0  0  0  0  0  0  0  0  0  0
    3.0164   -2.7498    0.0000 C   0  0  0  0  0  0  0  0  0  0  0  0
    1.8193   -3.6537    0.0000 C   0  0  0  0  0  0  0  0  0  0  0  0
    0.3766   -4.0642    0.0000 C   0  0  0  0  0  0  0  0  0  0  0  0
   -1.1170   -3.9258    0.0000 C   0  0  0  0  0  0  0  0  0  0  0  0
   -2.4597   -3.2572    0.0000 N   0  0  0  0  0  0  0  0  0  0  0  0
   -3.4703   -2.1487    0.0000 C   0  0  0  0  0  0  0  0  0  0  0  0
   -4.0121   -0.7500    0.0000 C   0  0  0  0  0  0  0  0  0  0  0  0
   -4.0121    0.7500    0.0000 C   0  0  0  0  0  0  0  0  0  0  0  0
   -3.4703    2.1487    0.0000 C   0  0  0  0  0  0  0  0  0  0  0  0
   -2.4597    3.2572    0.0000 C   0  0  0  0  0  0  0  0  0  0  0  0
   -1.1170    3.9258    0.0000 C   0  0  0  0  0  0  0  0  0  0  0  0
    0.3766    4.0642    0.0000 C   0  0  0  0  0  0  0  0  0  0  0  0
    1.8193    3.6537    0.0000 C   0  0  0  0  0  0  0  0  0  0  0  0
    3.0164    2.7498    0.0000 C   0  0  0  0  0  0  0  0  0  0  0  0
    3.3598    4.2099    0.0000 C   0  0  0  0  0  0  0  0  0  0  0  0
    4.6351    4.9996    0.0000 C   0  0  0  0  0  0  0  0  0  0  0  0
    6.0953    4.6562    0.0000 C   0  0  0  0  0  0  0  0  0  0  0  0
  1  2  1  0
  2  3  1  0
  3  4  2  0
  4  5  1  0
  5  6  2  0
  6  7  1  0
  7  8  2  0
  8  9  1  0
  9 10  2  0
 10 11  1  0
 11 12  2  0
 12 13  1  0
 13 14  2  0
 14 15  1  0
 15 16  2  0
 16 17  1  0
 17 18  2  0
 18 19  1  0
 19 20  2  0
 20 21  1  0
 21 22  2  0
 22 23  1  0
 23 24  1  0
 24 25  1  0
 25  3  1  0
 22  6  1  0
M  END
>  <Title>  (376) 
idAAOLgen8

$$$$

     RDKit          2D

 35 39  0  0  0  0  0  0  0  0999 V2000
    4.6771   -1.2990    0.0000 C   0  0  0  0  0  0  0  0  0  0  0  0
    3.9271    0.0000    0.0000 O   0  0  0  0  0  0  0  0  0  0  0  0
    2.4271    0.0000    0.0000 C   0  0  0  0  0  0  0  0  0  0  0  0
    1.9635   -1.4266    0.0000 C   0  0  0  0  0  0  0  0  0  0  0  0
    0.7500   -2.3083    0.0000 C   0  0  0  0  0  0  0  0  0  0  0  0
   -0.7500   -2.3083    0.0000 C   0  0  0  0  0  0  0  0  0  0  0  0
   -1.9635   -1.4266    0.0000 C   0  0  0  0  0  0  0  0  0  0  0  0
   -2.4271    0.0000    0.0000 C   0  0  0  0  0  0  0  0  0  0  0  0
   -1.9635    1.4266    0.0000 C   0  0  0  0  0  0  0  0  0  0  0  0
   -0.7500    2.3083    0.0000 C   0  0  0  0  0  0  0  0  0  0  0  0
   -1.2135    3.7348    0.0000 N   0  0  0  0  0  0  0  0  0  0  0  0
   -0.2098    4.8496    0.0000 N   0  0  0  0  0  0  0  0  0  0  0  0
   -0.6734    6.2761    0.0000 N   0  0  0  0  0  0  0  0  0  0  0  0
   -2.1406    6.5880    0.0000 N   0  0  0  0  0  0  0  0  0  0  0  0
   -3.1443    5.4733    0.0000 N   0  0  0  0  0  0  0  0  0  0  0  0
   -2.6807    4.0467    0.0000 N   0  0  0  0  0  0  0  0  0  0  0  0
   -3.6844    2.9320    0.0000 C   0  0  0  0  0  0  0  0  0  0  0  0
   -5.1517    3.2439    0.0000 C   0  0  0  0  0  0  0  0  0  0  0  0
   -6.1554    2.1291    0.0000 C   0  0  0  0  0  0  0  0  0  0  0  0
   -5.6918    0.7026    0.0000 C   0  0  0  0  0  0  0  0  0  0  0  0
   -6.6955   -0.4122    0.0000 C   0  0  0  0  0  0  0  0  0  0  0  0
   -6.3837   -1.8794    0.0000 N   0  0  0  0  0  0  0  0  0  0  0  0
   -7.6827   -2.6294    0.0000 N   0  0  0  0  0  0  0  0  0  0  0  0
   -8.7974   -1.6257    0.0000 N   0  0  0  0  0  0  0  0  0  0  0  0
   -8.1873   -0.2554    0.0000 N   0  0  0  0  0  0  0  0  0  0  0  0
   -8.9373    1.0437    0.0000 C   0  0  0  0  0  0  0  0  0  0  0  0
   -8.1873    2.3427    0.0000 C   0  0  0  0  0  0  0  0  0  0  0  0
   -8.9373    3.6418    0.0000 C   0  0  0  0  0  0  0  0  0  0  0  0
  -10.4373    3.6418    0.0000 C   0  0  0  0  0  0  0  0  0  0  0  0
  -11.1873    2.3427    0.0000 C   0  0  0  0  0  0  0  0  0  0  0  0
  -10.4373    1.0437    0.0000 C   0  0  0  0  0  0  0  0  0  0  0  0
   -4.2246    0.3907    0.0000 C   0  0  0  0  0  0  0  0  0  0  0  0
   -3.2209    1.5054    0.0000 C   0  0  0  0  0  0  0  0  0  0  0  0
    0.7500    2.3083    0.0000 C   0  0  0  0  0  0  0  0  0  0  0  0
    1.9635    1.4266    0.0000 C   0  0  0  0  0  0  0  0  0  0  0  0
  1  2  1  0
  2  3  1  0
  3  4  2  0
  4  5  1  0
  5  6  2  0
  6  7  1  0
  7  8  2  0
  8  9  1  0
  9 10  2  0
 10 11  1  0
 11 12  1  0
 12 13  2  0
 13 14  1  0
 14 15  2  0
 15 16  1  0
 16 17  1  0
 17 18  2  0
 18 19  1  0
 19 20  2  0
 20 21  1  0
 21 22  2  0
 22 23  1  0
 23 24  2  0
 24 25  1  0
 25 26  1  0
 26 27  2  0
 27 28  1  0
 28 29  2  0
 29 30  1  0
 30 31  2  0
 20 32  1  0
 32 33  2  0
 10 34  1  0
 34 35  2  0
 35  3  1  0
 16 11  1  0
 33 17  1  0
 25 21  1  0
 31 26  1  0
M  END
>  <Title>  (377) 
idAAOMgen8

$$$$

     RDKit          2D

 12 12  0  0  0  0  0  0  0  0999 V2000
    4.6771   -1.2990    0.0000 C   0  0  0  0  0  0  0  0  0  0  0  0
    3.9271    0.0000    0.0000 O   0  0  0  0  0  0  0  0  0  0  0  0
    2.4271    0.0000    0.0000 C   0  0  0  0  0  0  0  0  0  0  0  0
    1.9635   -1.4266    0.0000 C   0  0  0  0  0  0  0  0  0  0  0  0
    0.7500   -2.3083    0.0000 C   0  0  0  0  0  0  0  0  0  0  0  0
   -0.7500   -2.3083    0.0000 C   0  0  0  0  0  0  0  0  0  0  0  0
   -1.9635   -1.4266    0.0000 C   0  0  0  0  0  0  0  0  0  0  0  0
   -2.4271    0.0000    0.0000 C   0  0  0  0  0  0  0  0  0  0  0  0
   -1.9635    1.4266    0.0000 C   0  0  0  0  0  0  0  0  0  0  0  0
   -0.7500    2.3083    0.0000 C   0  0  0  0  0  0  0  0  0  0  0  0
    0.7500    2.3083    0.0000 C   0  0  0  0  0  0  0  0  0  0  0  0
    1.9635    1.4266    0.0000 C   0  0  0  0  0  0  0  0  0  0  0  0
  1  2  1  0
  2  3  1  0
  3  4  2  0
  4  5  1  0
  5  6  2  0
  6  7  1  0
  7  8  2  0
  8  9  1  0
  9 10  2  0
 10 11  1  0
 11 12  2  0
 12  3  1  0
M  END
>  <Title>  (378) 
idAAONgen8

$$$$

     RDKit          2D

 26 26  0  0  0  0  0  0  0  0999 V2000
    7.9960   -1.2990    0.0000 C   0  0  0  0  0  0  0  0  0  0  0  0
    7.2460    0.0000    0.0000 C   0  0  0  0  0  0  0  0  0  0  0  0
    5.7460    0.0000    0.0000 C   0  0  0  0  0  0  0  0  0  0  0  0
    5.5502   -1.4872    0.0000 C   0  0  0  0  0  0  0  0  0  0  0  0
    4.9762   -2.8730    0.0000 C   0  0  0  0  0  0  0  0  0  0  0  0
    4.0630   -4.0630    0.0000 C   0  0  0  0  0  0  0  0  0  0  0  0
    2.8730   -4.9762    0.0000 C   0  0  0  0  0  0  0  0  0  0  0  0
    1.4872   -5.5502    0.0000 C   0  0  0  0  0  0  0  0  0  0  0  0
   -0.0000   -5.7460    0.0000 C   0  0  0  0  0  0  0  0  0  0  0  0
   -1.4872   -5.5502    0.0000 C   0  0  0  0  0  0  0  0  0  0  0  0
   -2.8730   -4.9762    0.0000 C   0  0  0  0  0  0  0  0  0  0  0  0
   -4.0630   -4.0630    0.0000 C   0  0  0  0  0  0  0  0  0  0  0  0
   -4.9762   -2.8730    0.0000 C   0  0  0  0  0  0  0  0  0  0  0  0
   -5.5502   -1.4872    0.0000 C   0  0  0  0  0  0  0  0  0  0  0  0
   -5.7460    0.0000    0.0000 C   0  0  0  0  0  0  0  0  0  0  0  0
   -5.5502    1.4872    0.0000 C   0  0  0  0  0  0  0  0  0  0  0  0
   -4.9762    2.8730    0.0000 C   0  0  0  0  0  0  0  0  0  0  0  0
   -4.0630    4.0630    0.0000 C   0  0  0  0  0  0  0  0  0  0  0  0
   -2.8730    4.9762    0.0000 C   0  0  0  0  0  0  0  0  0  0  0  0
   -1.4872    5.5502    0.0000 C   0  0  0  0  0  0  0  0  0  0  0  0
    0.0000    5.7460    0.0000 C   0  0  0  0  0  0  0  0  0  0  0  0
    1.4872    5.5502    0.0000 C   0  0  0  0  0  0  0  0  0  0  0  0
    2.8730    4.9762    0.0000 C   0  0  0  0  0  0  0  0  0  0  0  0
    4.0630    4.0630    0.0000 C   0  0  0  0  0  0  0  0  0  0  0  0
    4.9762    2.8730    0.0000 C   0  0  0  0  0  0  0  0  0  0  0  0
    5.5502    1.4872    0.0000 C   0  0  0  0  0  0  0  0  0  0  0  0
  1  2  1  0
  2  3  1  0
  3  4  2  0
  4  5  1  0
  5  6  2  0
  6  7  1  0
  7  8  2  0
  8  9  1  0
  9 10  2  0
 10 11  1  0
 11 12  2  0
 12 13  1  0
 13 14  2  0
 14 15  1  0
 15 16  2  0
 16 17  1  0
 17 18  2  0
 18 19  1  0
 19 20  2  0
 20 21  1  0
 21 22  2  0
 22 23  1  0
 23 24  2  0
 24 25  1  0
 25 26  2  0
 26  3  1  0
M  END
>  <Title>  (379) 
idAAOOgen8

$$$$

     RDKit          2D

 31 31  0  0  0  0  0  0  0  0999 V2000
    9.1868   -1.2990    0.0000 C   0  0  0  0  0  0  0  0  0  0  0  0
    8.4368    0.0000    0.0000 O   0  0  0  0  0  0  0  0  0  0  0  0
    6.9368    0.0000    0.0000 C   0  0  0  0  0  0  0  0  0  0  0  0
    6.7746    1.4912    0.0000 C   0  0  0  0  0  0  0  0  0  0  0  0
    6.2957    2.9127    0.0000 C   0  0  0  0  0  0  0  0  0  0  0  0
    5.5223    4.1980    0.0000 C   0  0  0  0  0  0  0  0  0  0  0  0
    4.4908    5.2870    0.0000 N   0  0  0  0  0  0  0  0  0  0  0  0
    3.2493    6.1287    0.0000 C   0  0  0  0  0  0  0  0  0  0  0  0
    1.8558    6.6840    0.0000 C   0  0  0  0  0  0  0  0  0  0  0  0
    0.3756    6.9266    0.0000 C   0  0  0  0  0  0  0  0  0  0  0  0
   -1.1222    6.8454    0.0000 C   0  0  0  0  0  0  0  0  0  0  0  0
   -2.5676    6.4441    0.0000 C   0  0  0  0  0  0  0  0  0  0  0  0
   -3.8928    5.7415    0.0000 C   0  0  0  0  0  0  0  0  0  0  0  0
   -5.0361    4.7704    0.0000 C   0  0  0  0  0  0  0  0  0  0  0  0
   -5.9438    3.5763    0.0000 C   0  0  0  0  0  0  0  0  0  0  0  0
   -6.5737    2.2149    0.0000 C   0  0  0  0  0  0  0  0  0  0  0  0
   -6.8961    0.7500    0.0000 C   0  0  0  0  0  0  0  0  0  0  0  0
   -6.8961   -0.7500    0.0000 C   0  0  0  0  0  0  0  0  0  0  0  0
   -6.5737   -2.2149    0.0000 C   0  0  0  0  0  0  0  0  0  0  0  0
   -5.9438   -3.5763    0.0000 C   0  0  0  0  0  0  0  0  0  0  0  0
   -5.0361   -4.7704    0.0000 C   0  0  0  0  0  0  0  0  0  0  0  0
   -3.8928   -5.7415    0.0000 C   0  0  0  0  0  0  0  0  0  0  0  0
   -2.5676   -6.4441    0.0000 C   0  0  0  0  0  0  0  0  0  0  0  0
   -1.1222   -6.8454    0.0000 C   0  0  0  0  0  0  0  0  0  0  0  0
    0.3756   -6.9266    0.0000 C   0  0  0  0  0  0  0  0  0  0  0  0
    1.8558   -6.6840    0.0000 C   0  0  0  0  0  0  0  0  0  0  0  0
    3.2493   -6.1287    0.0000 C   0  0  0  0  0  0  0  0  0  0  0  0
    4.4908   -5.2870    0.0000 C   0  0  0  0  0  0  0  0  0  0  0  0
    5.5223   -4.1980    0.0000 C   0  0  0  0  0  0  0  0  0  0  0  0
    6.2957   -2.9127    0.0000 C   0  0  0  0  0  0  0  0  0  0  0  0
    6.7746   -1.4912    0.0000 C   0  0  0  0  0  0  0  0  0  0  0  0
  1  2  1  0
  2  3  1  0
  3  4  2  0
  4  5  1  0
  5  6  2  0
  6  7  2  0
  7  8  1  0
  8  9  2  0
  9 10  1  0
 10 11  2  0
 11 12  1  0
 12 13  2  0
 13 14  1  0
 14 15  2  0
 15 16  1  0
 16 17  2  0
 17 18  1  0
 18 19  2  0
 19 20  1  0
 20 21  2  0
 21 22  1  0
 22 23  2  0
 23 24  1  0
 24 25  2  0
 25 26  1  0
 26 27  2  0
 27 28  1  0
 28 29  2  0
 29 30  1  0
 30 31  2  0
 31  3  1  0
M  END
>  <Title>  (380) 
idAAOPgen8

$$$$

     RDKit          2D

 35 40  0  0  0  0  0  0  0  0999 V2000
  -10.1624    4.2767    0.0000 C   0  0  0  0  0  0  0  0  0  0  0  0
   -8.9488    3.3950    0.0000 C   0  0  0  0  0  0  0  0  0  0  0  0
   -7.5785    4.0051    0.0000 C   0  0  0  0  0  0  0  0  0  0  0  0
   -6.3650    3.1235    0.0000 C   0  0  0  0  0  0  0  0  0  0  0  0
   -6.5218    1.6317    0.0000 C   0  0  0  0  0  0  0  0  0  0  0  0
   -5.3083    0.7500    0.0000 C   0  0  0  0  0  0  0  0  0  0  0  0
   -5.3083   -0.7500    0.0000 N   0  0  0  0  0  0  0  0  0  0  0  0
   -3.8817   -1.2135    0.0000 N   0  0  0  0  0  0  0  0  0  0  0  0
   -3.0000    0.0000    0.0000 N   0  0  0  0  0  0  0  0  0  0  0  0
   -3.8817    1.2135    0.0000 N   0  0  0  0  0  0  0  0  0  0  0  0
   -3.4182    2.6401    0.0000 C   0  0  0  0  0  0  0  0  0  0  0  0
   -4.2998    3.8536    0.0000 N   0  0  0  0  0  0  0  0  0  0  0  0
   -3.4182    5.0672    0.0000 N   0  0  0  0  0  0  0  0  0  0  0  0
   -1.9916    4.6036    0.0000 N   0  0  0  0  0  0  0  0  0  0  0  0
   -1.9916    3.1036    0.0000 N   0  0  0  0  0  0  0  0  0  0  0  0
   -0.7780    2.2220    0.0000 C   0  0  0  0  0  0  0  0  0  0  0  0
   -0.7780    0.7220    0.0000 C   0  0  0  0  0  0  0  0  0  0  0  0
    0.6485    0.2584    0.0000 C   0  0  0  0  0  0  0  0  0  0  0  0
    1.5302    1.4720    0.0000 C   0  0  0  0  0  0  0  0  0  0  0  0
    3.0302    1.4720    0.0000 C   0  0  0  0  0  0  0  0  0  0  0  0
    3.9119    0.2584    0.0000 N   0  0  0  0  0  0  0  0  0  0  0  0
    5.3385    0.7220    0.0000 N   0  0  0  0  0  0  0  0  0  0  0  0
    5.3385    2.2220    0.0000 N   0  0  0  0  0  0  0  0  0  0  0  0
    3.9119    2.6855    0.0000 N   0  0  0  0  0  0  0  0  0  0  0  0
    3.4484    4.1121    0.0000 C   0  0  0  0  0  0  0  0  0  0  0  0
    1.9812    4.4239    0.0000 C   0  0  0  0  0  0  0  0  0  0  0  0
    1.5176    5.8505    0.0000 C   0  0  0  0  0  0  0  0  0  0  0  0
    2.5213    6.9652    0.0000 C   0  0  0  0  0  0  0  0  0  0  0  0
    3.9885    6.6534    0.0000 C   0  0  0  0  0  0  0  0  0  0  0  0
    4.4521    5.2268    0.0000 C   0  0  0  0  0  0  0  0  0  0  0  0
    0.6485    2.6855    0.0000 C   0  0  0  0  0  0  0  0  0  0  0  0
    1.1121    4.1121    0.0000 O   0  0  0  0  0  0  0  0  0  0  0  0
   -7.8921    1.0216    0.0000 C   0  0  0  0  0  0  0  0  0  0  0  0
   -8.0489   -0.4702    0.0000 O   0  0  0  0  0  0  0  0  0  0  0  0
   -9.1056    1.9033    0.0000 N   0  0  0  0  0  0  0  0  0  0  0  0
  1  2  1  0
  2  3  2  0
  3  4  1  0
  4  5  2  0
  5  6  1  0
  6  7  2  0
  7  8  1  0
  8  9  2  0
  9 10  1  0
 10 11  1  0
 11 12  1  0
 12 13  1  0
 13 14  2  0
 14 15  1  0
 15 16  1  0
 16 17  2  0
 17 18  1  0
 18 19  2  0
 19 20  1  0
 20 21  2  0
 21 22  1  0
 22 23  2  0
 23 24  1  0
 24 25  1  0
 25 26  2  0
 26 27  1  0
 27 28  2  0
 28 29  1  0
 29 30  2  0
 19 31  1  0
 31 32  2  0
  5 33  1  0
 33 34  2  0
 33 35  1  0
 35  2  1  0
 10  6  1  0
 15 11  1  0
 31 16  1  0
 24 20  1  0
 30 25  1  0
M  END
>  <Title>  (381) 
idAAOQgen8

$$$$

     RDKit          2D

 13 13  0  0  0  0  0  0  0  0999 V2000
    4.6771   -1.2990    0.0000 O   0  0  0  0  0  0  0  0  0  0  0  0
    3.9271    0.0000    0.0000 C   0  0  0  0  0  0  0  0  0  0  0  0
    2.4271    0.0000    0.0000 C   0  0  0  0  0  0  0  0  0  0  0  0
    1.9635   -1.4266    0.0000 C   0  0  0  0  0  0  0  0  0  0  0  0
    0.7500   -2.3083    0.0000 C   0  0  0  0  0  0  0  0  0  0  0  0
   -0.7500   -2.3083    0.0000 C   0  0  0  0  0  0  0  0  0  0  0  0
   -1.9635   -1.4266    0.0000 C   0  0  0  0  0  0  0  0  0  0  0  0
   -2.4271    0.0000    0.0000 C   0  0  0  0  0  0  0  0  0  0  0  0
   -1.9635    1.4266    0.0000 C   0  0  0  0  0  0  0  0  0  0  0  0
   -0.7500    2.3083    0.0000 C   0  0  0  0  0  0  0  0  0  0  0  0
    0.7500    2.3083    0.0000 C   0  0  0  0  0  0  0  0  0  0  0  0
    1.9635    1.4266    0.0000 C   0  0  0  0  0  0  0  0  0  0  0  0
    3.1771    2.3083    0.0000 O   0  0  0  0  0  0  0  0  0  0  0  0
  1  2  1  0
  2  3  1  0
  3  4  2  0
  4  5  1  0
  5  6  2  0
  6  7  1  0
  7  8  2  0
  8  9  1  0
  9 10  2  0
 10 11  1  0
 11 12  2  0
 12 13  1  0
 12  3  1  0
M  END
>  <Title>  (382) 
idAAORgen8

$$$$

     RDKit          2D

 16 17  0  0  0  0  0  0  0  0999 V2000
    1.6268    7.1276    0.0000 C   0  0  0  0  0  0  0  0  0  0  0  0
    1.2930    5.6652    0.0000 C   0  0  0  0  0  0  0  0  0  0  0  0
    2.5531    4.8513    0.0000 C   0  0  0  0  0  0  0  0  0  0  0  0
    2.9952    3.4180    0.0000 C   0  0  0  0  0  0  0  0  0  0  0  0
    2.4126    2.0358    0.0000 C   0  0  0  0  0  0  0  0  0  0  0  0
    1.0777    1.3515    0.0000 C   0  0  0  0  0  0  0  0  0  0  0  0
    1.7286    0.0000    0.0000 C   0  0  0  0  0  0  0  0  0  0  0  0
    1.0777   -1.3515    0.0000 C   0  0  0  0  0  0  0  0  0  0  0  0
   -0.3846   -1.6852    0.0000 C   0  0  0  0  0  0  0  0  0  0  0  0
   -1.5574   -0.7500    0.0000 C   0  0  0  0  0  0  0  0  0  0  0  0
   -1.5574    0.7500    0.0000 C   0  0  0  0  0  0  0  0  0  0  0  0
   -0.3846    1.6852    0.0000 C   0  0  0  0  0  0  0  0  0  0  0  0
   -1.2904    2.8809    0.0000 N   0  0  0  0  0  0  0  0  0  0  0  0
   -1.2156    4.3791    0.0000 C   0  0  0  0  0  0  0  0  0  0  0  0
   -2.5978    4.9617    0.0000 O   0  0  0  0  0  0  0  0  0  0  0  0
   -0.1953    5.4786    0.0000 C   0  0  0  0  0  0  0  0  0  0  0  0
  1  2  1  0
  2  3  2  0
  3  4  1  0
  4  5  2  0
  5  6  2  0
  6  7  1  0
  7  8  2  0
  8  9  1  0
  9 10  2  0
 10 11  1  0
 11 12  2  0
 12 13  1  0
 13 14  1  0
 14 15  2  0
 14 16  1  0
 16  2  1  0
 12  6  1  0
M  END
>  <Title>  (383) 
idAAOSgen8

$$$$

     RDKit          2D

 15 15  0  0  0  0  0  0  0  0999 V2000
    4.8705    0.0000    0.0000 N   0  0  0  0  0  0  0  0  0  0  0  0
    3.3705    0.0000    0.0000 C   0  0  0  0  0  0  0  0  0  0  0  0
    3.0367   -1.4624    0.0000 C   0  0  0  0  0  0  0  0  0  0  0  0
    2.1015   -2.6351    0.0000 C   0  0  0  0  0  0  0  0  0  0  0  0
    0.7500   -3.2860    0.0000 C   0  0  0  0  0  0  0  0  0  0  0  0
   -0.7500   -3.2860    0.0000 C   0  0  0  0  0  0  0  0  0  0  0  0
   -2.1015   -2.6351    0.0000 C   0  0  0  0  0  0  0  0  0  0  0  0
   -3.0367   -1.4624    0.0000 C   0  0  0  0  0  0  0  0  0  0  0  0
   -3.3705    0.0000    0.0000 C   0  0  0  0  0  0  0  0  0  0  0  0
   -3.0367    1.4624    0.0000 C   0  0  0  0  0  0  0  0  0  0  0  0
   -2.1015    2.6351    0.0000 C   0  0  0  0  0  0  0  0  0  0  0  0
   -0.7500    3.2860    0.0000 C   0  0  0  0  0  0  0  0  0  0  0  0
    0.7500    3.2860    0.0000 C   0  0  0  0  0  0  0  0  0  0  0  0
    2.1015    2.6351    0.0000 C   0  0  0  0  0  0  0  0  0  0  0  0
    3.0367    1.4624    0.0000 C   0  0  0  0  0  0  0  0  0  0  0  0
  1  2  1  0
  2  3  2  0
  3  4  1  0
  4  5  2  0
  5  6  1  0
  6  7  2  0
  7  8  1  0
  8  9  2  0
  9 10  1  0
 10 11  2  0
 11 12  1  0
 12 13  2  0
 13 14  1  0
 14 15  2  0
 15  2  1  0
M  END
>  <Title>  (384) 
idAAOTgen8

$$$$

     RDKit          2D

 39 44  0  0  0  0  0  0  0  0999 V2000
    3.0000    0.0000    0.0000 C   0  0  0  0  0  0  0  0  0  0  0  0
    1.5000    0.0000    0.0000 C   0  0  0  0  0  0  0  0  0  0  0  0
    0.7500    1.2990    0.0000 C   0  0  0  0  0  0  0  0  0  0  0  0
   -0.7500    1.2990    0.0000 C   0  0  0  0  0  0  0  0  0  0  0  0
   -1.5000    0.0000    0.0000 C   0  0  0  0  0  0  0  0  0  0  0  0
   -3.0000    0.0000    0.0000 C   0  0  0  0  0  0  0  0  0  0  0  0
   -3.8817   -1.2135    0.0000 N   0  0  0  0  0  0  0  0  0  0  0  0
   -5.3083   -0.7500    0.0000 N   0  0  0  0  0  0  0  0  0  0  0  0
   -5.3083    0.7500    0.0000 N   0  0  0  0  0  0  0  0  0  0  0  0
   -3.8817    1.2135    0.0000 N   0  0  0  0  0  0  0  0  0  0  0  0
   -3.4182    2.6401    0.0000 C   0  0  0  0  0  0  0  0  0  0  0  0
   -4.2998    3.8536    0.0000 C   0  0  0  0  0  0  0  0  0  0  0  0
   -3.4182    5.0672    0.0000 C   0  0  0  0  0  0  0  0  0  0  0  0
   -1.9916    4.6036    0.0000 C   0  0  0  0  0  0  0  0  0  0  0  0
   -0.7780    5.4853    0.0000 C   0  0  0  0  0  0  0  0  0  0  0  0
    0.5923    4.8752    0.0000 O   0  0  0  0  0  0  0  0  0  0  0  0
   -0.9348    6.9771    0.0000 N   0  0  0  0  0  0  0  0  0  0  0  0
    0.2787    7.8588    0.0000 C   0  0  0  0  0  0  0  0  0  0  0  0
    1.7053    7.3952    0.0000 N   0  0  0  0  0  0  0  0  0  0  0  0
    2.5870    8.6088    0.0000 N   0  0  0  0  0  0  0  0  0  0  0  0
    1.7053    9.8223    0.0000 N   0  0  0  0  0  0  0  0  0  0  0  0
    0.2787    9.3588    0.0000 N   0  0  0  0  0  0  0  0  0  0  0  0
   -0.9348   10.2405    0.0000 C   0  0  0  0  0  0  0  0  0  0  0  0
   -2.3052    9.6303    0.0000 C   0  0  0  0  0  0  0  0  0  0  0  0
   -3.5187   10.5120    0.0000 C   0  0  0  0  0  0  0  0  0  0  0  0
   -3.3619   12.0038    0.0000 C   0  0  0  0  0  0  0  0  0  0  0  0
   -4.5754   12.8855    0.0000 C   0  0  0  0  0  0  0  0  0  0  0  0
   -5.9457   12.2754    0.0000 C   0  0  0  0  0  0  0  0  0  0  0  0
   -7.1593   13.1571    0.0000 C   0  0  0  0  0  0  0  0  0  0  0  0
   -7.0025   14.6488    0.0000 C   0  0  0  0  0  0  0  0  0  0  0  0
   -5.6321   15.2589    0.0000 C   0  0  0  0  0  0  0  0  0  0  0  0
   -4.4186   14.3773    0.0000 C   0  0  0  0  0  0  0  0  0  0  0  0
   -1.9916   12.6139    0.0000 C   0  0  0  0  0  0  0  0  0  0  0  0
   -0.7780   11.7322    0.0000 C   0  0  0  0  0  0  0  0  0  0  0  0
   -1.9916    3.1036    0.0000 C   0  0  0  0  0  0  0  0  0  0  0  0
   -0.7780    2.2220    0.0000 O   0  0  0  0  0  0  0  0  0  0  0  0
   -0.7500   -1.2990    0.0000 C   0  0  0  0  0  0  0  0  0  0  0  0
   -1.5000   -2.5981    0.0000 O   0  0  0  0  0  0  0  0  0  0  0  0
    0.7500   -1.2990    0.0000 N   0  0  0  0  0  0  0  0  0  0  0  0
  1  2  1  0
  2  3  2  0
  3  4  1  0
  4  5  2  0
  5  6  1  0
  6  7  2  0
  7  8  1  0
  8  9  2  0
  9 10  1  0
 10 11  1  0
 11 12  2  0
 12 13  1  0
 13 14  2  0
 14 15  1  0
 15 16  2  0
 15 17  1  0
 17 18  1  0
 18 19  2  0
 19 20  1  0
 20 21  2  0
 21 22  1  0
 22 23  1  0
 23 24  2  0
 24 25  1  0
 25 26  2  0
 26 27  1  0
 27 28  2  0
 28 29  1  0
 29 30  2  0
 30 31  1  0
 31 32  2  0
 26 33  1  0
 33 34  2  0
 14 35  1  0
 35 36  2  0
  5 37  1  0
 37 38  2  0
 37 39  1  0
 39  2  1  0
 10  6  1  0
 35 11  1  0
 22 18  1  0
 34 23  1  0
 32 27  1  0
M  END
>  <Title>  (385) 
idAAOUgen8

$$$$

     RDKit          2D

 18 18  0  0  0  0  0  0  0  0999 V2000
    6.0944   -1.2990    0.0000 O   0  0  0  0  0  0  0  0  0  0  0  0
    5.3444    0.0000    0.0000 C   0  0  0  0  0  0  0  0  0  0  0  0
    3.8444    0.0000    0.0000 C   0  0  0  0  0  0  0  0  0  0  0  0
    3.5517   -1.4712    0.0000 C   0  0  0  0  0  0  0  0  0  0  0  0
    2.7184   -2.7184    0.0000 C   0  0  0  0  0  0  0  0  0  0  0  0
    1.4712   -3.5517    0.0000 C   0  0  0  0  0  0  0  0  0  0  0  0
   -0.0000   -3.8444    0.0000 C   0  0  0  0  0  0  0  0  0  0  0  0
   -1.4712   -3.5517    0.0000 C   0  0  0  0  0  0  0  0  0  0  0  0
   -2.7184   -2.7184    0.0000 C   0  0  0  0  0  0  0  0  0  0  0  0
   -3.5517   -1.4712    0.0000 C   0  0  0  0  0  0  0  0  0  0  0  0
   -3.8444    0.0000    0.0000 C   0  0  0  0  0  0  0  0  0  0  0  0
   -3.5517    1.4712    0.0000 C   0  0  0  0  0  0  0  0  0  0  0  0
   -2.7184    2.7184    0.0000 C   0  0  0  0  0  0  0  0  0  0  0  0
   -1.4712    3.5517    0.0000 C   0  0  0  0  0  0  0  0  0  0  0  0
    0.0000    3.8444    0.0000 C   0  0  0  0  0  0  0  0  0  0  0  0
    1.4712    3.5517    0.0000 C   0  0  0  0  0  0  0  0  0  0  0  0
    2.7184    2.7184    0.0000 C   0  0  0  0  0  0  0  0  0  0  0  0
    3.5517    1.4712    0.0000 C   0  0  0  0  0  0  0  0  0  0  0  0
  1  2  1  0
  2  3  1  0
  3  4  2  0
  4  5  1  0
  5  6  2  0
  6  7  1  0
  7  8  2  0
  8  9  1  0
  9 10  2  0
 10 11  1  0
 11 12  2  0
 12 13  1  0
 13 14  2  0
 14 15  1  0
 15 16  2  0
 16 17  1  0
 17 18  2  0
 18  3  1  0
M  END
>  <Title>  (386) 
idAAOVgen8

$$$$

     RDKit          2D

 15 16  0  0  0  0  0  0  0  0999 V2000
    1.9130    6.5742    0.0000 C   0  0  0  0  0  0  0  0  0  0  0  0
    0.4276    6.3655    0.0000 O   0  0  0  0  0  0  0  0  0  0  0  0
   -0.1343    4.9747    0.0000 C   0  0  0  0  0  0  0  0  0  0  0  0
    0.9804    3.9710    0.0000 C   0  0  0  0  0  0  0  0  0  0  0  0
    1.1892    2.4856    0.0000 C   0  0  0  0  0  0  0  0  0  0  0  0
    0.3943    1.2135    0.0000 C   0  0  0  0  0  0  0  0  0  0  0  0
    1.2760    0.0000    0.0000 C   0  0  0  0  0  0  0  0  0  0  0  0
    0.3943   -1.2135    0.0000 C   0  0  0  0  0  0  0  0  0  0  0  0
   -1.0323   -0.7500    0.0000 C   0  0  0  0  0  0  0  0  0  0  0  0
   -1.0323    0.7500    0.0000 C   0  0  0  0  0  0  0  0  0  0  0  0
   -2.4231    1.3119    0.0000 C   0  0  0  0  0  0  0  0  0  0  0  0
   -3.1273    2.6363    0.0000 C   0  0  0  0  0  0  0  0  0  0  0  0
   -2.8154    4.1036    0.0000 C   0  0  0  0  0  0  0  0  0  0  0  0
   -1.6334    5.0270    0.0000 C   0  0  0  0  0  0  0  0  0  0  0  0
   -2.0969    6.4536    0.0000 N   0  0  0  0  0  0  0  0  0  0  0  0
  1  2  1  0
  2  3  1  0
  3  4  2  0
  4  5  1  0
  5  6  2  0
  6  7  1  0
  7  8  2  0
  8  9  1  0
  9 10  2  0
 10 11  1  0
 11 12  1  0
 12 13  1  0
 13 14  2  0
 14 15  1  0
 14  3  1  0
 10  6  1  0
M  END
>  <Title>  (387) 
idAAOWgen8

$$$$

     RDKit          2D

 54 61  0  0  0  0  0  0  0  0999 V2000
    3.7500    1.2990    0.0000 C   0  0  0  0  0  0  0  0  0  0  0  0
    3.0000    0.0000    0.0000 O   0  0  0  0  0  0  0  0  0  0  0  0
    1.5000    0.0000    0.0000 C   0  0  0  0  0  0  0  0  0  0  0  0
    0.7500    1.2990    0.0000 C   0  0  0  0  0  0  0  0  0  0  0  0
   -0.7500    1.2990    0.0000 C   0  0  0  0  0  0  0  0  0  0  0  0
   -1.5000    0.0000    0.0000 C   0  0  0  0  0  0  0  0  0  0  0  0
   -3.0000    0.0000    0.0000 C   0  0  0  0  0  0  0  0  0  0  0  0
   -3.8817   -1.2135    0.0000 N   0  0  0  0  0  0  0  0  0  0  0  0
   -5.3083   -0.7500    0.0000 N   0  0  0  0  0  0  0  0  0  0  0  0
   -5.3083    0.7500    0.0000 N   0  0  0  0  0  0  0  0  0  0  0  0
   -3.8817    1.2135    0.0000 N   0  0  0  0  0  0  0  0  0  0  0  0
   -3.4182    2.6401    0.0000 C   0  0  0  0  0  0  0  0  0  0  0  0
   -1.9509    2.9520    0.0000 C   0  0  0  0  0  0  0  0  0  0  0  0
   -1.4874    4.3786    0.0000 C   0  0  0  0  0  0  0  0  0  0  0  0
   -2.4911    5.4933    0.0000 C   0  0  0  0  0  0  0  0  0  0  0  0
   -2.0276    6.9199    0.0000 C   0  0  0  0  0  0  0  0  0  0  0  0
   -3.0313    8.0346    0.0000 O   0  0  0  0  0  0  0  0  0  0  0  0
   -0.5604    7.2317    0.0000 N   0  0  0  0  0  0  0  0  0  0  0  0
   -0.0968    8.6583    0.0000 C   0  0  0  0  0  0  0  0  0  0  0  0
   -0.9785    9.8718    0.0000 N   0  0  0  0  0  0  0  0  0  0  0  0
   -0.0968   11.0854    0.0000 N   0  0  0  0  0  0  0  0  0  0  0  0
    1.3298   10.6218    0.0000 N   0  0  0  0  0  0  0  0  0  0  0  0
    1.3298    9.1218    0.0000 N   0  0  0  0  0  0  0  0  0  0  0  0
    2.5433    8.2402    0.0000 C   0  0  0  0  0  0  0  0  0  0  0  0
    2.3865    6.7484    0.0000 C   0  0  0  0  0  0  0  0  0  0  0  0
    3.6000    5.8667    0.0000 C   0  0  0  0  0  0  0  0  0  0  0  0
    4.9703    6.4768    0.0000 C   0  0  0  0  0  0  0  0  0  0  0  0
    5.1271    7.9686    0.0000 C   0  0  0  0  0  0  0  0  0  0  0  0
    3.9136    8.8503    0.0000 C   0  0  0  0  0  0  0  0  0  0  0  0
   -3.9583    5.1814    0.0000 C   0  0  0  0  0  0  0  0  0  0  0  0
   -4.4218    3.7548    0.0000 C   0  0  0  0  0  0  0  0  0  0  0  0
   -5.8891    3.4430    0.0000 C   0  0  0  0  0  0  0  0  0  0  0  0
   -6.4992    2.0726    0.0000 C   0  0  0  0  0  0  0  0  0  0  0  0
   -7.9910    2.2294    0.0000 C   0  0  0  0  0  0  0  0  0  0  0  0
   -8.3028    3.6967    0.0000 C   0  0  0  0  0  0  0  0  0  0  0  0
   -9.6731    4.3068    0.0000 C   0  0  0  0  0  0  0  0  0  0  0  0
  -10.8867    3.4251    0.0000 O   0  0  0  0  0  0  0  0  0  0  0  0
   -9.8299    5.7985    0.0000 N   0  0  0  0  0  0  0  0  0  0  0  0
  -11.2003    6.4086    0.0000 C   0  0  0  0  0  0  0  0  0  0  0  0
  -12.4993    5.6586    0.0000 N   0  0  0  0  0  0  0  0  0  0  0  0
  -13.6140    6.6623    0.0000 N   0  0  0  0  0  0  0  0  0  0  0  0
  -13.0039    8.0327    0.0000 N   0  0  0  0  0  0  0  0  0  0  0  0
  -11.5121    7.8759    0.0000 N   0  0  0  0  0  0  0  0  0  0  0  0
  -10.5084    8.9906    0.0000 C   0  0  0  0  0  0  0  0  0  0  0  0
   -9.0412    8.6787    0.0000 C   0  0  0  0  0  0  0  0  0  0  0  0
   -8.0375    9.7934    0.0000 C   0  0  0  0  0  0  0  0  0  0  0  0
   -8.5010   11.2200    0.0000 C   0  0  0  0  0  0  0  0  0  0  0  0
   -9.9683   11.5319    0.0000 C   0  0  0  0  0  0  0  0  0  0  0  0
  -10.9720   10.4172    0.0000 C   0  0  0  0  0  0  0  0  0  0  0  0
   -7.0038    4.4467    0.0000 C   0  0  0  0  0  0  0  0  0  0  0  0
   -6.8470    5.9384    0.0000 O   0  0  0  0  0  0  0  0  0  0  0  0
   -0.7500   -1.2990    0.0000 C   0  0  0  0  0  0  0  0  0  0  0  0
   -1.5000   -2.5981    0.0000 O   0  0  0  0  0  0  0  0  0  0  0  0
    0.7500   -1.2990    0.0000 N   0  0  0  0  0  0  0  0  0  0  0  0
  1  2  1  0
  2  3  1  0
  3  4  2  0
  4  5  1  0
  5  6  2  0
  6  7  1  0
  7  8  2  0
  8  9  1  0
  9 10  2  0
 10 11  1  0
 11 12  1  0
 12 13  2  0
 13 14  1  0
 14 15  2  0
 15 16  1  0
 16 17  2  0
 16 18  1  0
 18 19  1  0
 19 20  2  0
 20 21  1  0
 21 22  2  0
 22 23  1  0
 23 24  1  0
 24 25  2  0
 25 26  1  0
 26 27  2  0
 27 28  1  0
 28 29  2  0
 15 30  1  0
 30 31  2  0
 31 32  1  0
 32 33  2  0
 33 34  1  0
 34 35  2  0
 35 36  1  0
 36 37  2  0
 36 38  1  0
 38 39  1  0
 39 40  2  0
 40 41  1  0
 41 42  2  0
 42 43  1  0
 43 44  1  0
 44 45  2  0
 45 46  1  0
 46 47  2  0
 47 48  1  0
 48 49  2  0
 35 50  1  0
 50 51  2  0
  6 52  1  0
 52 53  2  0
 52 54  1  0
 54  3  1  0
 11  7  1  0
 31 12  1  0
 50 32  1  0
 23 19  1  0
 29 24  1  0
 43 39  1  0
 49 44  1  0
M  END
>  <Title>  (388) 
idAAOXgen8

$$$$

     RDKit          2D

 21 23  0  0  0  0  0  0  0  0999 V2000
    5.6714    4.4124    0.0000 C   0  0  0  0  0  0  0  0  0  0  0  0
    4.4712    5.3122    0.0000 O   0  0  0  0  0  0  0  0  0  0  0  0
    3.0919    4.7226    0.0000 C   0  0  0  0  0  0  0  0  0  0  0  0
    3.2264    3.2287    0.0000 C   0  0  0  0  0  0  0  0  0  0  0  0
    2.4570    1.9410    0.0000 C   0  0  0  0  0  0  0  0  0  0  0  0
    1.0777    1.3515    0.0000 C   0  0  0  0  0  0  0  0  0  0  0  0
    1.7286    0.0000    0.0000 C   0  0  0  0  0  0  0  0  0  0  0  0
    1.0777   -1.3515    0.0000 C   0  0  0  0  0  0  0  0  0  0  0  0
   -0.3846   -1.6852    0.0000 C   0  0  0  0  0  0  0  0  0  0  0  0
   -1.5574   -0.7500    0.0000 C   0  0  0  0  0  0  0  0  0  0  0  0
   -1.5574    0.7500    0.0000 C   0  0  0  0  0  0  0  0  0  0  0  0
   -0.3846    1.6852    0.0000 C   0  0  0  0  0  0  0  0  0  0  0  0
   -1.3716    2.8148    0.0000 C   0  0  0  0  0  0  0  0  0  0  0  0
   -2.7508    2.2253    0.0000 C   0  0  0  0  0  0  0  0  0  0  0  0
   -3.7378    3.3549    0.0000 C   0  0  0  0  0  0  0  0  0  0  0  0
   -2.9684    4.6426    0.0000 C   0  0  0  0  0  0  0  0  0  0  0  0
   -1.5060    4.3088    0.0000 C   0  0  0  0  0  0  0  0  0  0  0  0
   -0.7367    5.5965    0.0000 N   0  0  0  0  0  0  0  0  0  0  0  0
    0.6426    6.1860    0.0000 C   0  0  0  0  0  0  0  0  0  0  0  0
    0.5082    7.6800    0.0000 O   0  0  0  0  0  0  0  0  0  0  0  0
    2.1050    5.8522    0.0000 N   0  0  0  0  0  0  0  0  0  0  0  0
  1  2  1  0
  2  3  1  0
  3  4  2  0
  4  5  1  0
  5  6  2  0
  6  7  1  0
  7  8  2  0
  8  9  1  0
  9 10  2  0
 10 11  1  0
 11 12  2  0
 12 13  1  0
 13 14  1  0
 14 15  2  0
 15 16  1  0
 16 17  2  0
 17 18  1  0
 18 19  1  0
 19 20  2  0
 19 21  1  0
 21  3  1  0
 12  6  1  0
 17 13  1  0
M  END
>  <Title>  (389) 
idAAOYgen8

$$$$

     RDKit          2D

 36 41  0  0  0  0  0  0  0  0999 V2000
    3.7500    1.2990    0.0000 C   0  0  0  0  0  0  0  0  0  0  0  0
    3.0000    0.0000    0.0000 O   0  0  0  0  0  0  0  0  0  0  0  0
    1.5000    0.0000    0.0000 C   0  0  0  0  0  0  0  0  0  0  0  0
    0.7500    1.2990    0.0000 C   0  0  0  0  0  0  0  0  0  0  0  0
   -0.7500    1.2990    0.0000 C   0  0  0  0  0  0  0  0  0  0  0  0
   -1.5000    0.0000    0.0000 C   0  0  0  0  0  0  0  0  0  0  0  0
   -3.0000    0.0000    0.0000 C   0  0  0  0  0  0  0  0  0  0  0  0
   -3.8817   -1.2135    0.0000 N   0  0  0  0  0  0  0  0  0  0  0  0
   -5.3083   -0.7500    0.0000 N   0  0  0  0  0  0  0  0  0  0  0  0
   -5.3083    0.7500    0.0000 N   0  0  0  0  0  0  0  0  0  0  0  0
   -3.8817    1.2135    0.0000 N   0  0  0  0  0  0  0  0  0  0  0  0
   -3.4182    2.6401    0.0000 C   0  0  0  0  0  0  0  0  0  0  0  0
   -1.9509    2.9520    0.0000 C   0  0  0  0  0  0  0  0  0  0  0  0
   -1.4874    4.3786    0.0000 C   0  0  0  0  0  0  0  0  0  0  0  0
   -2.4911    5.4933    0.0000 C   0  0  0  0  0  0  0  0  0  0  0  0
   -2.0276    6.9199    0.0000 C   0  0  0  0  0  0  0  0  0  0  0  0
   -2.9093    8.1334    0.0000 N   0  0  0  0  0  0  0  0  0  0  0  0
   -2.0276    9.3469    0.0000 N   0  0  0  0  0  0  0  0  0  0  0  0
   -0.6010    8.8834    0.0000 N   0  0  0  0  0  0  0  0  0  0  0  0
   -0.6010    7.3834    0.0000 N   0  0  0  0  0  0  0  0  0  0  0  0
    0.6125    6.5017    0.0000 C   0  0  0  0  0  0  0  0  0  0  0  0
    0.6125    5.0017    0.0000 N   0  0  0  0  0  0  0  0  0  0  0  0
    2.0391    4.5382    0.0000 N   0  0  0  0  0  0  0  0  0  0  0  0
    2.9208    5.7517    0.0000 N   0  0  0  0  0  0  0  0  0  0  0  0
    2.0391    6.9652    0.0000 N   0  0  0  0  0  0  0  0  0  0  0  0
    2.5026    8.3918    0.0000 C   0  0  0  0  0  0  0  0  0  0  0  0
    3.9699    8.7037    0.0000 C   0  0  0  0  0  0  0  0  0  0  0  0
    4.4334   10.1303    0.0000 C   0  0  0  0  0  0  0  0  0  0  0  0
    3.4297   11.2450    0.0000 C   0  0  0  0  0  0  0  0  0  0  0  0
    1.9625   10.9331    0.0000 C   0  0  0  0  0  0  0  0  0  0  0  0
    1.4989    9.5065    0.0000 C   0  0  0  0  0  0  0  0  0  0  0  0
   -3.9583    5.1814    0.0000 C   0  0  0  0  0  0  0  0  0  0  0  0
   -4.4218    3.7548    0.0000 C   0  0  0  0  0  0  0  0  0  0  0  0
   -0.7500   -1.2990    0.0000 C   0  0  0  0  0  0  0  0  0  0  0  0
   -1.5000   -2.5981    0.0000 O   0  0  0  0  0  0  0  0  0  0  0  0
    0.7500   -1.2990    0.0000 N   0  0  0  0  0  0  0  0  0  0  0  0
  1  2  1  0
  2  3  1  0
  3  4  2  0
  4  5  1  0
  5  6  2  0
  6  7  1  0
  7  8  2  0
  8  9  1  0
  9 10  2  0
 10 11  1  0
 11 12  1  0
 12 13  2  0
 13 14  1  0
 14 15  2  0
 15 16  1  0
 16 17  2  0
 17 18  1  0
 18 19  2  0
 19 20  1  0
 20 21  1  0
 21 22  2  0
 22 23  1  0
 23 24  2  0
 24 25  1  0
 25 26  1  0
 26 27  2  0
 27 28  1  0
 28 29  2  0
 29 30  1  0
 30 31  2  0
 15 32  1  0
 32 33  2  0
  6 34  1  0
 34 35  2  0
 34 36  1  0
 36  3  1  0
 11  7  1  0
 33 12  1  0
 20 16  1  0
 25 21  1  0
 31 26  1  0
M  END
>  <Title>  (390) 
idAAOZgen8

$$$$

     RDKit          2D

 29 29  0  0  0  0  0  0  0  0999 V2000
    8.1986    0.0000    0.0000 N   0  0  0  0  0  0  0  0  0  0  0  0
    6.6986    0.0000    0.0000 C   0  0  0  0  0  0  0  0  0  0  0  0
    6.5306   -1.4906    0.0000 C   0  0  0  0  0  0  0  0  0  0  0  0
    6.0352   -2.9064    0.0000 C   0  0  0  0  0  0  0  0  0  0  0  0
    5.2371   -4.1765    0.0000 C   0  0  0  0  0  0  0  0  0  0  0  0
    4.1765   -5.2371    0.0000 C   0  0  0  0  0  0  0  0  0  0  0  0
    2.9064   -6.0352    0.0000 C   0  0  0  0  0  0  0  0  0  0  0  0
    1.4906   -6.5306    0.0000 C   0  0  0  0  0  0  0  0  0  0  0  0
   -0.0000   -6.6986    0.0000 C   0  0  0  0  0  0  0  0  0  0  0  0
   -1.4906   -6.5306    0.0000 C   0  0  0  0  0  0  0  0  0  0  0  0
   -2.9064   -6.0352    0.0000 C   0  0  0  0  0  0  0  0  0  0  0  0
   -4.1765   -5.2371    0.0000 C   0  0  0  0  0  0  0  0  0  0  0  0
   -5.2371   -4.1765    0.0000 C   0  0  0  0  0  0  0  0  0  0  0  0
   -6.0352   -2.9064    0.0000 C   0  0  0  0  0  0  0  0  0  0  0  0
   -6.5306   -1.4906    0.0000 C   0  0  0  0  0  0  0  0  0  0  0  0
   -6.6986    0.0000    0.0000 C   0  0  0  0  0  0  0  0  0  0  0  0
   -6.5306    1.4906    0.0000 C   0  0  0  0  0  0  0  0  0  0  0  0
   -6.0352    2.9064    0.0000 C   0  0  0  0  0  0  0  0  0  0  0  0
   -5.2371    4.1765    0.0000 C   0  0  0  0  0  0  0  0  0  0  0  0
   -4.1765    5.2371    0.0000 C   0  0  0  0  0  0  0  0  0  0  0  0
   -2.9064    6.0352    0.0000 C   0  0  0  0  0  0  0  0  0  0  0  0
   -1.4906    6.5306    0.0000 C   0  0  0  0  0  0  0  0  0  0  0  0
    0.0000    6.6986    0.0000 C   0  0  0  0  0  0  0  0  0  0  0  0
    1.4906    6.5306    0.0000 C   0  0  0  0  0  0  0  0  0  0  0  0
    2.9064    6.0352    0.0000 C   0  0  0  0  0  0  0  0  0  0  0  0
    4.1765    5.2371    0.0000 C   0  0  0  0  0  0  0  0  0  0  0  0
    5.2371    4.1765    0.0000 C   0  0  0  0  0  0  0  0  0  0  0  0
    6.0352    2.9064    0.0000 C   0  0  0  0  0  0  0  0  0  0  0  0
    6.5306    1.4906    0.0000 C   0  0  0  0  0  0  0  0  0  0  0  0
  1  2  1  0
  2  3  2  0
  3  4  1  0
  4  5  2  0
  5  6  1  0
  6  7  2  0
  7  8  1  0
  8  9  2  0
  9 10  1  0
 10 11  2  0
 11 12  1  0
 12 13  2  0
 13 14  1  0
 14 15  2  0
 15 16  1  0
 16 17  2  0
 17 18  1  0
 18 19  2  0
 19 20  1  0
 20 21  2  0
 21 22  1  0
 22 23  2  0
 23 24  1  0
 24 25  2  0
 25 26  1  0
 26 27  2  0
 27 28  1  0
 28 29  2  0
 29  2  1  0
M  END
>  <Title>  (391) 
idAAPAgen8

$$$$

     RDKit          2D

 41 46  0  0  0  0  0  0  0  0999 V2000
    3.7500   -1.2990    0.0000 C   0  0  0  0  0  0  0  0  0  0  0  0
    3.0000    0.0000    0.0000 O   0  0  0  0  0  0  0  0  0  0  0  0
    1.5000    0.0000    0.0000 C   0  0  0  0  0  0  0  0  0  0  0  0
    0.7500   -1.2990    0.0000 C   0  0  0  0  0  0  0  0  0  0  0  0
   -0.7500   -1.2990    0.0000 C   0  0  0  0  0  0  0  0  0  0  0  0
   -1.5000    0.0000    0.0000 C   0  0  0  0  0  0  0  0  0  0  0  0
   -3.0000    0.0000    0.0000 C   0  0  0  0  0  0  0  0  0  0  0  0
   -3.7500   -1.2990    0.0000 O   0  0  0  0  0  0  0  0  0  0  0  0
   -3.7500    1.2990    0.0000 N   0  0  0  0  0  0  0  0  0  0  0  0
   -5.2500    1.2990    0.0000 C   0  0  0  0  0  0  0  0  0  0  0  0
   -6.1317    0.0855    0.0000 N   0  0  0  0  0  0  0  0  0  0  0  0
   -7.5583    0.5490    0.0000 N   0  0  0  0  0  0  0  0  0  0  0  0
   -7.5583    2.0490    0.0000 N   0  0  0  0  0  0  0  0  0  0  0  0
   -6.1317    2.5126    0.0000 N   0  0  0  0  0  0  0  0  0  0  0  0
   -5.6682    3.9391    0.0000 C   0  0  0  0  0  0  0  0  0  0  0  0
   -4.2009    4.2510    0.0000 C   0  0  0  0  0  0  0  0  0  0  0  0
   -3.7374    5.6776    0.0000 C   0  0  0  0  0  0  0  0  0  0  0  0
   -4.7411    6.7923    0.0000 C   0  0  0  0  0  0  0  0  0  0  0  0
   -4.2776    8.2189    0.0000 C   0  0  0  0  0  0  0  0  0  0  0  0
   -5.1593    9.4324    0.0000 N   0  0  0  0  0  0  0  0  0  0  0  0
   -4.2776   10.6460    0.0000 N   0  0  0  0  0  0  0  0  0  0  0  0
   -2.8510   10.1824    0.0000 N   0  0  0  0  0  0  0  0  0  0  0  0
   -2.8510    8.6824    0.0000 N   0  0  0  0  0  0  0  0  0  0  0  0
   -1.6375    7.8008    0.0000 C   0  0  0  0  0  0  0  0  0  0  0  0
   -1.7943    6.3090    0.0000 C   0  0  0  0  0  0  0  0  0  0  0  0
   -0.5807    5.4273    0.0000 C   0  0  0  0  0  0  0  0  0  0  0  0
    0.7896    6.0374    0.0000 C   0  0  0  0  0  0  0  0  0  0  0  0
    0.9464    7.5292    0.0000 C   0  0  0  0  0  0  0  0  0  0  0  0
   -0.2671    8.4109    0.0000 C   0  0  0  0  0  0  0  0  0  0  0  0
   -6.2083    6.4805    0.0000 C   0  0  0  0  0  0  0  0  0  0  0  0
   -6.6718    5.0539    0.0000 C   0  0  0  0  0  0  0  0  0  0  0  0
   -8.1391    4.7420    0.0000 C   0  0  0  0  0  0  0  0  0  0  0  0
   -9.1428    5.8567    0.0000 C   0  0  0  0  0  0  0  0  0  0  0  0
  -10.6100    5.5448    0.0000 C   0  0  0  0  0  0  0  0  0  0  0  0
  -11.0735    4.1183    0.0000 C   0  0  0  0  0  0  0  0  0  0  0  0
  -12.5407    3.8064    0.0000 C   0  0  0  0  0  0  0  0  0  0  0  0
  -10.0698    3.0035    0.0000 C   0  0  0  0  0  0  0  0  0  0  0  0
  -10.5333    1.5770    0.0000 O   0  0  0  0  0  0  0  0  0  0  0  0
   -8.6026    3.3154    0.0000 N   0  0  0  0  0  0  0  0  0  0  0  0
   -0.7500    1.2990    0.0000 N   0  0  0  0  0  0  0  0  0  0  0  0
    0.7500    1.2990    0.0000 C   0  0  0  0  0  0  0  0  0  0  0  0
  1  2  1  0
  2  3  1  0
  3  4  2  0
  4  5  1  0
  5  6  2  0
  6  7  1  0
  7  8  2  0
  7  9  1  0
  9 10  1  0
 10 11  2  0
 11 12  1  0
 12 13  2  0
 13 14  1  0
 14 15  1  0
 15 16  2  0
 16 17  1  0
 17 18  2  0
 18 19  1  0
 19 20  2  0
 20 21  1  0
 21 22  2  0
 22 23  1  0
 23 24  1  0
 24 25  2  0
 25 26  1  0
 26 27  2  0
 27 28  1  0
 28 29  2  0
 18 30  1  0
 30 31  2  0
 31 32  1  0
 32 33  2  0
 33 34  1  0
 34 35  2  0
 35 36  1  0
 35 37  1  0
 37 38  2  0
 37 39  1  0
  6 40  1  0
 40 41  1  0
 41  3  1  0
 14 10  1  0
 31 15  1  0
 39 32  1  0
 23 19  1  0
 29 24  1  0
M  END
>  <Title>  (392) 
idAAPBgen8

$$$$

     RDKit          2D

 46 52  0  0  0  0  0  0  0  0999 V2000
    5.6198   12.1137    0.0000 C   0  0  0  0  0  0  0  0  0  0  0  0
    4.1739   11.7146    0.0000 C   0  0  0  0  0  0  0  0  0  0  0  0
    3.1053   12.7673    0.0000 C   0  0  0  0  0  0  0  0  0  0  0  0
    1.6594   12.3683    0.0000 C   0  0  0  0  0  0  0  0  0  0  0  0
    1.2820   10.9165    0.0000 C   0  0  0  0  0  0  0  0  0  0  0  0
   -0.1639   10.5175    0.0000 C   0  0  0  0  0  0  0  0  0  0  0  0
   -1.2325   11.5702    0.0000 O   0  0  0  0  0  0  0  0  0  0  0  0
   -0.5413    9.0657    0.0000 N   0  0  0  0  0  0  0  0  0  0  0  0
   -1.9873    8.6667    0.0000 C   0  0  0  0  0  0  0  0  0  0  0  0
   -3.1600    9.6019    0.0000 N   0  0  0  0  0  0  0  0  0  0  0  0
   -4.4119    8.7756    0.0000 N   0  0  0  0  0  0  0  0  0  0  0  0
   -4.0128    7.3296    0.0000 N   0  0  0  0  0  0  0  0  0  0  0  0
   -2.5143    7.2623    0.0000 N   0  0  0  0  0  0  0  0  0  0  0  0
   -1.6880    6.0104    0.0000 C   0  0  0  0  0  0  0  0  0  0  0  0
   -2.2150    4.6061    0.0000 C   0  0  0  0  0  0  0  0  0  0  0  0
   -1.0423    3.6709    0.0000 C   0  0  0  0  0  0  0  0  0  0  0  0
    0.2096    4.4972    0.0000 C   0  0  0  0  0  0  0  0  0  0  0  0
    1.6139    3.9701    0.0000 C   0  0  0  0  0  0  0  0  0  0  0  0
    2.8658    4.7965    0.0000 N   0  0  0  0  0  0  0  0  0  0  0  0
    4.0385    3.8613    0.0000 N   0  0  0  0  0  0  0  0  0  0  0  0
    3.5115    2.4569    0.0000 N   0  0  0  0  0  0  0  0  0  0  0  0
    2.0130    2.5242    0.0000 N   0  0  0  0  0  0  0  0  0  0  0  0
    1.0777    1.3515    0.0000 C   0  0  0  0  0  0  0  0  0  0  0  0
   -0.3846    1.6852    0.0000 C   0  0  0  0  0  0  0  0  0  0  0  0
   -1.5574    0.7500    0.0000 C   0  0  0  0  0  0  0  0  0  0  0  0
   -1.5574   -0.7500    0.0000 C   0  0  0  0  0  0  0  0  0  0  0  0
   -2.9088   -1.4008    0.0000 N   0  0  0  0  0  0  0  0  0  0  0  0
   -0.3846   -1.6852    0.0000 N   0  0  0  0  0  0  0  0  0  0  0  0
    1.0777   -1.3515    0.0000 N   0  0  0  0  0  0  0  0  0  0  0  0
    1.7286    0.0000    0.0000 N   0  0  0  0  0  0  0  0  0  0  0  0
    3.2286    0.0000    0.0000 C   0  0  0  0  0  0  0  0  0  0  0  0
    4.1103    1.2135    0.0000 C   0  0  0  0  0  0  0  0  0  0  0  0
    5.5368    0.7500    0.0000 C   0  0  0  0  0  0  0  0  0  0  0  0
    5.5368   -0.7500    0.0000 C   0  0  0  0  0  0  0  0  0  0  0  0
    6.7504   -1.6317    0.0000 C   0  0  0  0  0  0  0  0  0  0  0  0
    6.5936   -3.1235    0.0000 C   0  0  0  0  0  0  0  0  0  0  0  0
    7.8071   -4.0051    0.0000 C   0  0  0  0  0  0  0  0  0  0  0  0
    9.1774   -3.3950    0.0000 C   0  0  0  0  0  0  0  0  0  0  0  0
    9.3342   -1.9033    0.0000 C   0  0  0  0  0  0  0  0  0  0  0  0
    8.1207   -1.0216    0.0000 C   0  0  0  0  0  0  0  0  0  0  0  0
    4.1103   -1.2135    0.0000 C   0  0  0  0  0  0  0  0  0  0  0  0
    3.6467   -2.6401    0.0000 O   0  0  0  0  0  0  0  0  0  0  0  0
   -0.1895    5.9432    0.0000 C   0  0  0  0  0  0  0  0  0  0  0  0
    0.7458    7.1159    0.0000 O   0  0  0  0  0  0  0  0  0  0  0  0
    2.3506    9.8638    0.0000 C   0  0  0  0  0  0  0  0  0  0  0  0
    3.7965   10.2629    0.0000 C   0  0  0  0  0  0  0  0  0  0  0  0
  1  2  1  0
  2  3  2  0
  3  4  1  0
  4  5  2  0
  5  6  1  0
  6  7  2  0
  6  8  1  0
  8  9  1  0
  9 10  2  0
 10 11  1  0
 11 12  2  0
 12 13  1  0
 13 14  1  0
 14 15  2  0
 15 16  1  0
 16 17  2  0
 17 18  1  0
 18 19  2  0
 19 20  1  0
 20 21  2  0
 21 22  1  0
 22 23  1  0
 23 24  2  0
 24 25  1  0
 25 26  2  0
 26 27  1  0
 26 28  1  0
 28 29  2  0
 29 30  1  0
 30 31  1  0
 31 32  2  0
 32 33  1  0
 33 34  2  0
 34 35  1  0
 35 36  2  0
 36 37  1  0
 37 38  2  0
 38 39  1  0
 39 40  2  0
 34 41  1  0
 41 42  2  0
 17 43  1  0
 43 44  2  0
  5 45  1  0
 45 46  2  0
 46  2  1  0
 13  9  1  0
 43 14  1  0
 22 18  1  0
 30 23  1  0
 41 31  1  0
 40 35  1  0
M  END
>  <Title>  (393) 
idAAPCgen8

$$$$

     RDKit          2D

 35 35  0  0  0  0  0  0  0  0999 V2000
    9.6285    0.0000    0.0000 C   0  0  0  0  0  0  0  0  0  0  0  0
    8.1285    0.0000    0.0000 C   0  0  0  0  0  0  0  0  0  0  0  0
    7.9901   -1.4936    0.0000 C   0  0  0  0  0  0  0  0  0  0  0  0
    7.5796   -2.9363    0.0000 C   0  0  0  0  0  0  0  0  0  0  0  0
    6.9110   -4.2791    0.0000 C   0  0  0  0  0  0  0  0  0  0  0  0
    6.0070   -5.4761    0.0000 C   0  0  0  0  0  0  0  0  0  0  0  0
    4.8985   -6.4867    0.0000 C   0  0  0  0  0  0  0  0  0  0  0  0
    3.6232   -7.2763    0.0000 C   0  0  0  0  0  0  0  0  0  0  0  0
    2.2245   -7.8182    0.0000 C   0  0  0  0  0  0  0  0  0  0  0  0
    0.7500   -8.0938    0.0000 C   0  0  0  0  0  0  0  0  0  0  0  0
   -0.7500   -8.0938    0.0000 C   0  0  0  0  0  0  0  0  0  0  0  0
   -2.2245   -7.8182    0.0000 C   0  0  0  0  0  0  0  0  0  0  0  0
   -3.6232   -7.2763    0.0000 C   0  0  0  0  0  0  0  0  0  0  0  0
   -4.8985   -6.4867    0.0000 C   0  0  0  0  0  0  0  0  0  0  0  0
   -6.0070   -5.4761    0.0000 C   0  0  0  0  0  0  0  0  0  0  0  0
   -6.9110   -4.2791    0.0000 C   0  0  0  0  0  0  0  0  0  0  0  0
   -7.5796   -2.9363    0.0000 C   0  0  0  0  0  0  0  0  0  0  0  0
   -7.9901   -1.4936    0.0000 C   0  0  0  0  0  0  0  0  0  0  0  0
   -8.1285    0.0000    0.0000 C   0  0  0  0  0  0  0  0  0  0  0  0
   -7.9901    1.4936    0.0000 C   0  0  0  0  0  0  0  0  0  0  0  0
   -7.5796    2.9363    0.0000 C   0  0  0  0  0  0  0  0  0  0  0  0
   -6.9110    4.2791    0.0000 C   0  0  0  0  0  0  0  0  0  0  0  0
   -6.0070    5.4761    0.0000 C   0  0  0  0  0  0  0  0  0  0  0  0
   -4.8985    6.4867    0.0000 C   0  0  0  0  0  0  0  0  0  0  0  0
   -3.6232    7.2763    0.0000 C   0  0  0  0  0  0  0  0  0  0  0  0
   -2.2245    7.8182    0.0000 C   0  0  0  0  0  0  0  0  0  0  0  0
   -0.7500    8.0938    0.0000 C   0  0  0  0  0  0  0  0  0  0  0  0
    0.7500    8.0938    0.0000 C   0  0  0  0  0  0  0  0  0  0  0  0
    2.2245    7.8182    0.0000 C   0  0  0  0  0  0  0  0  0  0  0  0
    3.6232    7.2763    0.0000 C   0  0  0  0  0  0  0  0  0  0  0  0
    4.8985    6.4867    0.0000 C   0  0  0  0  0  0  0  0  0  0  0  0
    6.0070    5.4761    0.0000 C   0  0  0  0  0  0  0  0  0  0  0  0
    6.9110    4.2791    0.0000 C   0  0  0  0  0  0  0  0  0  0  0  0
    7.5796    2.9363    0.0000 C   0  0  0  0  0  0  0  0  0  0  0  0
    7.9901    1.4936    0.0000 C   0  0  0  0  0  0  0  0  0  0  0  0
  1  2  1  0
  2  3  2  0
  3  4  1  0
  4  5  2  0
  5  6  2  0
  6  7  2  0
  7  8  1  0
  8  9  2  0
  9 10  1  0
 10 11  2  0
 11 12  1  0
 12 13  2  0
 13 14  1  0
 14 15  2  0
 15 16  1  0
 16 17  2  0
 17 18  1  0
 18 19  2  0
 19 20  1  0
 20 21  2  0
 21 22  1  0
 22 23  2  0
 23 24  1  0
 24 25  2  0
 25 26  1  0
 26 27  2  0
 27 28  1  0
 28 29  2  0
 29 30  1  0
 30 31  2  0
 31 32  1  0
 32 33  2  0
 33 34  1  0
 34 35  2  0
 35  2  1  0
M  END
>  <Title>  (394) 
idAAPDgen8

$$$$

     RDKit          2D

 40 45  0  0  0  0  0  0  0  0999 V2000
    3.7500   -1.2990    0.0000 C   0  0  0  0  0  0  0  0  0  0  0  0
    3.0000    0.0000    0.0000 O   0  0  0  0  0  0  0  0  0  0  0  0
    1.5000    0.0000    0.0000 C   0  0  0  0  0  0  0  0  0  0  0  0
    0.7500   -1.2990    0.0000 C   0  0  0  0  0  0  0  0  0  0  0  0
   -0.7500   -1.2990    0.0000 C   0  0  0  0  0  0  0  0  0  0  0  0
   -1.5000    0.0000    0.0000 C   0  0  0  0  0  0  0  0  0  0  0  0
   -3.0000    0.0000    0.0000 C   0  0  0  0  0  0  0  0  0  0  0  0
   -3.7500   -1.2990    0.0000 O   0  0  0  0  0  0  0  0  0  0  0  0
   -3.7500    1.2990    0.0000 N   0  0  0  0  0  0  0  0  0  0  0  0
   -5.2500    1.2990    0.0000 C   0  0  0  0  0  0  0  0  0  0  0  0
   -6.1317    0.0855    0.0000 N   0  0  0  0  0  0  0  0  0  0  0  0
   -7.5583    0.5490    0.0000 N   0  0  0  0  0  0  0  0  0  0  0  0
   -7.5583    2.0490    0.0000 N   0  0  0  0  0  0  0  0  0  0  0  0
   -6.1317    2.5126    0.0000 N   0  0  0  0  0  0  0  0  0  0  0  0
   -5.6682    3.9391    0.0000 C   0  0  0  0  0  0  0  0  0  0  0  0
   -4.2009    4.2510    0.0000 C   0  0  0  0  0  0  0  0  0  0  0  0
   -3.7374    5.6776    0.0000 C   0  0  0  0  0  0  0  0  0  0  0  0
   -4.7411    6.7923    0.0000 C   0  0  0  0  0  0  0  0  0  0  0  0
   -4.2776    8.2189    0.0000 C   0  0  0  0  0  0  0  0  0  0  0  0
   -5.1593    9.4324    0.0000 N   0  0  0  0  0  0  0  0  0  0  0  0
   -4.2776   10.6460    0.0000 N   0  0  0  0  0  0  0  0  0  0  0  0
   -2.8510   10.1824    0.0000 N   0  0  0  0  0  0  0  0  0  0  0  0
   -2.8510    8.6824    0.0000 N   0  0  0  0  0  0  0  0  0  0  0  0
   -1.6375    7.8008    0.0000 C   0  0  0  0  0  0  0  0  0  0  0  0
   -1.7943    6.3090    0.0000 C   0  0  0  0  0  0  0  0  0  0  0  0
   -0.5807    5.4273    0.0000 C   0  0  0  0  0  0  0  0  0  0  0  0
    0.7896    6.0374    0.0000 C   0  0  0  0  0  0  0  0  0  0  0  0
    0.9464    7.5292    0.0000 C   0  0  0  0  0  0  0  0  0  0  0  0
   -0.2671    8.4109    0.0000 C   0  0  0  0  0  0  0  0  0  0  0  0
   -6.2083    6.4805    0.0000 C   0  0  0  0  0  0  0  0  0  0  0  0
   -6.6718    5.0539    0.0000 C   0  0  0  0  0  0  0  0  0  0  0  0
   -8.1391    4.7420    0.0000 C   0  0  0  0  0  0  0  0  0  0  0  0
   -9.1428    5.8567    0.0000 C   0  0  0  0  0  0  0  0  0  0  0  0
  -10.6100    5.5448    0.0000 C   0  0  0  0  0  0  0  0  0  0  0  0
  -11.0735    4.1183    0.0000 C   0  0  0  0  0  0  0  0  0  0  0  0
  -12.5407    3.8064    0.0000 F   0  0  0  0  0  0  0  0  0  0  0  0
  -10.0698    3.0035    0.0000 C   0  0  0  0  0  0  0  0  0  0  0  0
   -8.6026    3.3154    0.0000 C   0  0  0  0  0  0  0  0  0  0  0  0
   -0.7500    1.2990    0.0000 C   0  0  0  0  0  0  0  0  0  0  0  0
    0.7500    1.2990    0.0000 C   0  0  0  0  0  0  0  0  0  0  0  0
  1  2  1  0
  2  3  1  0
  3  4  2  0
  4  5  1  0
  5  6  2  0
  6  7  1  0
  7  8  2  0
  7  9  1  0
  9 10  1  0
 10 11  2  0
 11 12  1  0
 12 13  2  0
 13 14  1  0
 14 15  1  0
 15 16  2  0
 16 17  1  0
 17 18  2  0
 18 19  1  0
 19 20  2  0
 20 21  1  0
 21 22  2  0
 22 23  1  0
 23 24  1  0
 24 25  2  0
 25 26  1  0
 26 27  2  0
 27 28  1  0
 28 29  2  0
 18 30  1  0
 30 31  2  0
 31 32  1  0
 32 33  2  0
 33 34  1  0
 34 35  2  0
 35 36  1  0
 35 37  1  0
 37 38  2  0
  6 39  1  0
 39 40  2  0
 40  3  1  0
 14 10  1  0
 31 15  1  0
 38 32  1  0
 23 19  1  0
 29 24  1  0
M  END
>  <Title>  (395) 
idAAPEgen8

$$$$

     RDKit          2D

 36 41  0  0  0  0  0  0  0  0999 V2000
    3.0000    0.0000    0.0000 C   0  0  0  0  0  0  0  0  0  0  0  0
    1.5000    0.0000    0.0000 C   0  0  0  0  0  0  0  0  0  0  0  0
    0.7500   -1.2990    0.0000 C   0  0  0  0  0  0  0  0  0  0  0  0
   -0.7500   -1.2990    0.0000 C   0  0  0  0  0  0  0  0  0  0  0  0
   -1.5000    0.0000    0.0000 C   0  0  0  0  0  0  0  0  0  0  0  0
   -3.0000    0.0000    0.0000 C   0  0  0  0  0  0  0  0  0  0  0  0
   -3.8817   -1.2135    0.0000 N   0  0  0  0  0  0  0  0  0  0  0  0
   -5.3083   -0.7500    0.0000 N   0  0  0  0  0  0  0  0  0  0  0  0
   -5.3083    0.7500    0.0000 N   0  0  0  0  0  0  0  0  0  0  0  0
   -3.8817    1.2135    0.0000 N   0  0  0  0  0  0  0  0  0  0  0  0
   -3.4182    2.6401    0.0000 C   0  0  0  0  0  0  0  0  0  0  0  0
   -4.2998    3.8536    0.0000 C   0  0  0  0  0  0  0  0  0  0  0  0
   -3.4182    5.0672    0.0000 C   0  0  0  0  0  0  0  0  0  0  0  0
   -1.9916    4.6036    0.0000 C   0  0  0  0  0  0  0  0  0  0  0  0
   -0.7780    5.4853    0.0000 C   0  0  0  0  0  0  0  0  0  0  0  0
    0.6485    5.0218    0.0000 N   0  0  0  0  0  0  0  0  0  0  0  0
    1.5302    6.2353    0.0000 N   0  0  0  0  0  0  0  0  0  0  0  0
    0.6485    7.4488    0.0000 N   0  0  0  0  0  0  0  0  0  0  0  0
   -0.7780    6.9853    0.0000 N   0  0  0  0  0  0  0  0  0  0  0  0
   -1.9916    7.8670    0.0000 C   0  0  0  0  0  0  0  0  0  0  0  0
   -1.9916    9.3670    0.0000 C   0  0  0  0  0  0  0  0  0  0  0  0
   -3.4182    9.8305    0.0000 C   0  0  0  0  0  0  0  0  0  0  0  0
   -4.2998    8.6170    0.0000 C   0  0  0  0  0  0  0  0  0  0  0  0
   -5.7998    8.6170    0.0000 C   0  0  0  0  0  0  0  0  0  0  0  0
   -6.5498    7.3180    0.0000 C   0  0  0  0  0  0  0  0  0  0  0  0
   -8.0498    7.3180    0.0000 C   0  0  0  0  0  0  0  0  0  0  0  0
   -8.7998    8.6170    0.0000 C   0  0  0  0  0  0  0  0  0  0  0  0
   -8.0498    9.9160    0.0000 C   0  0  0  0  0  0  0  0  0  0  0  0
   -6.5498    9.9160    0.0000 C   0  0  0  0  0  0  0  0  0  0  0  0
   -3.4182    7.4035    0.0000 C   0  0  0  0  0  0  0  0  0  0  0  0
   -3.8817    5.9769    0.0000 O   0  0  0  0  0  0  0  0  0  0  0  0
   -1.9916    3.1036    0.0000 C   0  0  0  0  0  0  0  0  0  0  0  0
   -0.7780    2.2220    0.0000 O   0  0  0  0  0  0  0  0  0  0  0  0
   -0.7500    1.2990    0.0000 N   0  0  0  0  0  0  0  0  0  0  0  0
    0.7500    1.2990    0.0000 C   0  0  0  0  0  0  0  0  0  0  0  0
    1.5000    2.5981    0.0000 O   0  0  0  0  0  0  0  0  0  0  0  0
  1  2  1  0
  2  3  2  0
  3  4  1  0
  4  5  2  0
  5  6  1  0
  6  7  2  0
  7  8  1  0
  8  9  2  0
  9 10  1  0
 10 11  1  0
 11 12  2  0
 12 13  1  0
 13 14  2  0
 14 15  1  0
 15 16  2  0
 16 17  1  0
 17 18  2  0
 18 19  1  0
 19 20  1  0
 20 21  2  0
 21 22  1  0
 22 23  2  0
 23 24  1  0
 24 25  2  0
 25 26  1  0
 26 27  2  0
 27 28  1  0
 28 29  2  0
 23 30  1  0
 30 31  2  0
 14 32  1  0
 32 33  2  0
  5 34  1  0
 34 35  1  0
 35 36  2  0
 35  2  1  0
 10  6  1  0
 32 11  1  0
 19 15  1  0
 30 20  1  0
 29 24  1  0
M  END
>  <Title>  (396) 
idAAPFgen8

$$$$

     RDKit          2D

 13 13  0  0  0  0  0  0  0  0999 V2000
    4.6771   -1.2990    0.0000 C   0  0  0  0  0  0  0  0  0  0  0  0
    3.9271    0.0000    0.0000 O   0  0  0  0  0  0  0  0  0  0  0  0
    2.4271    0.0000    0.0000 C   0  0  0  0  0  0  0  0  0  0  0  0
    1.9635   -1.4266    0.0000 C   0  0  0  0  0  0  0  0  0  0  0  0
    0.7500   -2.3083    0.0000 C   0  0  0  0  0  0  0  0  0  0  0  0
   -0.7500   -2.3083    0.0000 C   0  0  0  0  0  0  0  0  0  0  0  0
   -1.9635   -1.4266    0.0000 C   0  0  0  0  0  0  0  0  0  0  0  0
   -2.4271    0.0000    0.0000 C   0  0  0  0  0  0  0  0  0  0  0  0
   -1.9635    1.4266    0.0000 C   0  0  0  0  0  0  0  0  0  0  0  0
   -0.7500    2.3083    0.0000 C   0  0  0  0  0  0  0  0  0  0  0  0
    0.7500    2.3083    0.0000 C   0  0  0  0  0  0  0  0  0  0  0  0
    1.9635    1.4266    0.0000 C   0  0  0  0  0  0  0  0  0  0  0  0
    3.1771    2.3083    0.0000 C   0  0  0  0  0  0  0  0  0  0  0  0
  1  2  1  0
  2  3  1  0
  3  4  2  0
  4  5  1  0
  5  6  2  0
  6  7  1  0
  7  8  2  0
  8  9  1  0
  9 10  2  0
 10 11  1  0
 11 12  2  0
 12 13  1  0
 12  3  1  0
M  END
>  <Title>  (397) 
idAAPGgen8

$$$$

     RDKit          2D

 15 16  0  0  0  0  0  0  0  0999 V2000
   -0.7500   -3.8971    0.0000 O   0  0  0  0  0  0  0  0  0  0  0  0
    0.7500   -3.8971    0.0000 C   0  0  0  0  0  0  0  0  0  0  0  0
    1.5000   -2.5981    0.0000 N   0  0  0  0  0  0  0  0  0  0  0  0
    0.7500   -1.2990    0.0000 C   0  0  0  0  0  0  0  0  0  0  0  0
    1.5000    0.0000    0.0000 C   0  0  0  0  0  0  0  0  0  0  0  0
    0.7500    1.2990    0.0000 C   0  0  0  0  0  0  0  0  0  0  0  0
   -0.7500    1.2990    0.0000 C   0  0  0  0  0  0  0  0  0  0  0  0
   -1.5000    0.0000    0.0000 C   0  0  0  0  0  0  0  0  0  0  0  0
   -0.7500   -1.2990    0.0000 C   0  0  0  0  0  0  0  0  0  0  0  0
    1.5000   -5.1962    0.0000 C   0  0  0  0  0  0  0  0  0  0  0  0
    0.7500   -6.4952    0.0000 C   0  0  0  0  0  0  0  0  0  0  0  0
    1.5000   -7.7942    0.0000 C   0  0  0  0  0  0  0  0  0  0  0  0
    3.0000   -7.7942    0.0000 C   0  0  0  0  0  0  0  0  0  0  0  0
    3.7500   -6.4952    0.0000 C   0  0  0  0  0  0  0  0  0  0  0  0
    3.0000   -5.1962    0.0000 C   0  0  0  0  0  0  0  0  0  0  0  0
  1  2  2  0
  2  3  1  0
  3  4  1  0
  4  5  2  0
  5  6  1  0
  6  7  2  0
  7  8  1  0
  8  9  2  0
  2 10  1  0
 10 11  2  0
 11 12  1  0
 12 13  2  0
 13 14  1  0
 14 15  2  0
  9  4  1  0
 15 10  1  0
M  END
>  <Title>  (398) 
idAAPHgen8

$$$$

     RDKit          2D

  9  9  0  0  0  0  0  0  0  0999 V2000
    3.7500   -1.2990    0.0000 C   0  0  0  0  0  0  0  0  0  0  0  0
    3.0000    0.0000    0.0000 O   0  0  0  0  0  0  0  0  0  0  0  0
    1.5000    0.0000    0.0000 C   0  0  0  0  0  0  0  0  0  0  0  0
    0.7500   -1.2990    0.0000 C   0  0  0  0  0  0  0  0  0  0  0  0
   -0.7500   -1.2990    0.0000 C   0  0  0  0  0  0  0  0  0  0  0  0
   -1.5000    0.0000    0.0000 C   0  0  0  0  0  0  0  0  0  0  0  0
   -0.7500    1.2990    0.0000 C   0  0  0  0  0  0  0  0  0  0  0  0
    0.7500    1.2990    0.0000 C   0  0  0  0  0  0  0  0  0  0  0  0
    1.5000    2.5981    0.0000 O   0  0  0  0  0  0  0  0  0  0  0  0
  1  2  1  0
  2  3  1  0
  3  4  2  0
  4  5  1  0
  5  6  2  0
  6  7  1  0
  7  8  2  0
  8  9  1  0
  8  3  1  0
M  END
>  <Title>  (399) 
idAAPIgen8

$$$$

     RDKit          2D

 36 41  0  0  0  0  0  0  0  0999 V2000
    3.0000    0.0000    0.0000 C   0  0  0  0  0  0  0  0  0  0  0  0
    1.5000    0.0000    0.0000 C   0  0  0  0  0  0  0  0  0  0  0  0
    0.7500    1.2990    0.0000 C   0  0  0  0  0  0  0  0  0  0  0  0
   -0.7500    1.2990    0.0000 C   0  0  0  0  0  0  0  0  0  0  0  0
   -1.5000    0.0000    0.0000 C   0  0  0  0  0  0  0  0  0  0  0  0
   -3.0000    0.0000    0.0000 C   0  0  0  0  0  0  0  0  0  0  0  0
   -3.8817   -1.2135    0.0000 N   0  0  0  0  0  0  0  0  0  0  0  0
   -5.3083   -0.7500    0.0000 N   0  0  0  0  0  0  0  0  0  0  0  0
   -5.3083    0.7500    0.0000 N   0  0  0  0  0  0  0  0  0  0  0  0
   -3.8817    1.2135    0.0000 N   0  0  0  0  0  0  0  0  0  0  0  0
   -3.4182    2.6401    0.0000 C   0  0  0  0  0  0  0  0  0  0  0  0
   -4.2998    3.8536    0.0000 C   0  0  0  0  0  0  0  0  0  0  0  0
   -3.4182    5.0672    0.0000 C   0  0  0  0  0  0  0  0  0  0  0  0
   -1.9916    4.6036    0.0000 C   0  0  0  0  0  0  0  0  0  0  0  0
   -0.7780    5.4853    0.0000 C   0  0  0  0  0  0  0  0  0  0  0  0
    0.6485    5.0218    0.0000 N   0  0  0  0  0  0  0  0  0  0  0  0
    1.5302    6.2353    0.0000 N   0  0  0  0  0  0  0  0  0  0  0  0
    0.6485    7.4488    0.0000 N   0  0  0  0  0  0  0  0  0  0  0  0
   -0.7780    6.9853    0.0000 N   0  0  0  0  0  0  0  0  0  0  0  0
   -1.9916    7.8670    0.0000 C   0  0  0  0  0  0  0  0  0  0  0  0
   -3.3619    7.2569    0.0000 C   0  0  0  0  0  0  0  0  0  0  0  0
   -4.5754    8.1386    0.0000 C   0  0  0  0  0  0  0  0  0  0  0  0
   -4.4186    9.6303    0.0000 C   0  0  0  0  0  0  0  0  0  0  0  0
   -3.0483   10.2405    0.0000 C   0  0  0  0  0  0  0  0  0  0  0  0
   -1.8348    9.3588    0.0000 C   0  0  0  0  0  0  0  0  0  0  0  0
   -0.4645    9.9689    0.0000 C   0  0  0  0  0  0  0  0  0  0  0  0
   -0.3077   11.4607    0.0000 C   0  0  0  0  0  0  0  0  0  0  0  0
    1.0627   12.0708    0.0000 C   0  0  0  0  0  0  0  0  0  0  0  0
    2.2762   11.1891    0.0000 C   0  0  0  0  0  0  0  0  0  0  0  0
    2.1194    9.6973    0.0000 N   0  0  0  0  0  0  0  0  0  0  0  0
    0.7491    9.0872    0.0000 C   0  0  0  0  0  0  0  0  0  0  0  0
   -1.9916    3.1036    0.0000 C   0  0  0  0  0  0  0  0  0  0  0  0
   -0.7780    2.2220    0.0000 O   0  0  0  0  0  0  0  0  0  0  0  0
   -0.7500   -1.2990    0.0000 N   0  0  0  0  0  0  0  0  0  0  0  0
    0.7500   -1.2990    0.0000 C   0  0  0  0  0  0  0  0  0  0  0  0
    1.5000   -2.5981    0.0000 O   0  0  0  0  0  0  0  0  0  0  0  0
  1  2  1  0
  2  3  2  0
  3  4  1  0
  4  5  2  0
  5  6  1  0
  6  7  2  0
  7  8  1  0
  8  9  2  0
  9 10  1  0
 10 11  1  0
 11 12  2  0
 12 13  1  0
 13 14  2  0
 14 15  1  0
 15 16  2  0
 16 17  1  0
 17 18  2  0
 18 19  1  0
 19 20  1  0
 20 21  2  0
 21 22  1  0
 22 23  2  0
 23 24  1  0
 24 25  2  0
 25 26  1  0
 26 27  2  0
 27 28  1  0
 28 29  2  0
 29 30  1  0
 30 31  2  0
 14 32  1  0
 32 33  2  0
  5 34  1  0
 34 35  1  0
 35 36  2  0
 35  2  1  0
 10  6  1  0
 32 11  1  0
 19 15  1  0
 25 20  1  0
 31 26  1  0
M  END
>  <Title>  (400) 
idAAPJgen8

$$$$

     RDKit          2D

 32 36  0  0  0  0  0  0  0  0999 V2000
   -6.1684    5.2302    0.0000 C   0  0  0  0  0  0  0  0  0  0  0  0
   -4.7981    4.6201    0.0000 C   0  0  0  0  0  0  0  0  0  0  0  0
   -4.4862    3.1529    0.0000 C   0  0  0  0  0  0  0  0  0  0  0  0
   -2.9944    2.9961    0.0000 C   0  0  0  0  0  0  0  0  0  0  0  0
   -2.3843    4.3664    0.0000 C   0  0  0  0  0  0  0  0  0  0  0  0
   -0.9171    4.6782    0.0000 C   0  0  0  0  0  0  0  0  0  0  0  0
    0.0866    3.5635    0.0000 C   0  0  0  0  0  0  0  0  0  0  0  0
    1.5538    3.8754    0.0000 C   0  0  0  0  0  0  0  0  0  0  0  0
    2.5575    2.7607    0.0000 C   0  0  0  0  0  0  0  0  0  0  0  0
    4.0247    3.0725    0.0000 C   0  0  0  0  0  0  0  0  0  0  0  0
    4.6348    4.4429    0.0000 C   0  0  0  0  0  0  0  0  0  0  0  0
    6.1266    4.2861    0.0000 C   0  0  0  0  0  0  0  0  0  0  0  0
    6.4385    2.8189    0.0000 C   0  0  0  0  0  0  0  0  0  0  0  0
    5.1394    2.0689    0.0000 C   0  0  0  0  0  0  0  0  0  0  0  0
    4.9826    0.5771    0.0000 N   0  0  0  0  0  0  0  0  0  0  0  0
    6.0974   -0.4266    0.0000 C   0  0  0  0  0  0  0  0  0  0  0  0
    5.4873   -1.7969    0.0000 N   0  0  0  0  0  0  0  0  0  0  0  0
    3.9955   -1.6402    0.0000 C   0  0  0  0  0  0  0  0  0  0  0  0
    2.9918   -2.7549    0.0000 C   0  0  0  0  0  0  0  0  0  0  0  0
    3.3037   -4.2221    0.0000 N   0  0  0  0  0  0  0  0  0  0  0  0
    2.0046   -4.9721    0.0000 N   0  0  0  0  0  0  0  0  0  0  0  0
    0.8899   -3.9684    0.0000 N   0  0  0  0  0  0  0  0  0  0  0  0
    1.5000   -2.5981    0.0000 N   0  0  0  0  0  0  0  0  0  0  0  0
    0.7500   -1.2990    0.0000 C   0  0  0  0  0  0  0  0  0  0  0  0
    1.5000    0.0000    0.0000 C   0  0  0  0  0  0  0  0  0  0  0  0
    0.7500    1.2990    0.0000 C   0  0  0  0  0  0  0  0  0  0  0  0
   -0.7500    1.2990    0.0000 C   0  0  0  0  0  0  0  0  0  0  0  0
   -1.5000    0.0000    0.0000 C   0  0  0  0  0  0  0  0  0  0  0  0
   -0.7500   -1.2990    0.0000 C   0  0  0  0  0  0  0  0  0  0  0  0
    3.6836   -0.1729    0.0000 C   0  0  0  0  0  0  0  0  0  0  0  0
    2.3133    0.4372    0.0000 O   0  0  0  0  0  0  0  0  0  0  0  0
   -3.4990    5.3701    0.0000 N   0  0  0  0  0  0  0  0  0  0  0  0
  1  2  1  0
  2  3  2  0
  3  4  1  0
  4  5  2  0
  5  6  1  0
  6  7  1  0
  7  8  2  3
  8  9  1  0
  9 10  2  3
 10 11  1  0
 11 12  2  0
 12 13  1  0
 13 14  2  0
 14 15  1  0
 15 16  1  0
 16 17  2  0
 17 18  1  0
 18 19  1  0
 19 20  2  0
 20 21  1  0
 21 22  2  0
 22 23  1  0
 23 24  1  0
 24 25  2  0
 25 26  1  0
 26 27  2  0
 27 28  1  0
 28 29  2  0
 18 30  1  0
 30 31  2  0
  5 32  1  0
 32  2  1  0
 14 10  1  0
 30 15  1  0
 23 19  1  0
 29 24  1  0
M  END
>  <Title>  (401) 
idAAPKgen8

$$$$

     RDKit          2D

 18 18  0  0  0  0  0  0  0  0999 V2000
    6.0944   -1.2990    0.0000 C   0  0  0  0  0  0  0  0  0  0  0  0
    5.3444    0.0000    0.0000 O   0  0  0  0  0  0  0  0  0  0  0  0
    3.8444    0.0000    0.0000 C   0  0  0  0  0  0  0  0  0  0  0  0
    3.5517   -1.4712    0.0000 C   0  0  0  0  0  0  0  0  0  0  0  0
    2.7184   -2.7184    0.0000 C   0  0  0  0  0  0  0  0  0  0  0  0
    1.4712   -3.5517    0.0000 C   0  0  0  0  0  0  0  0  0  0  0  0
   -0.0000   -3.8444    0.0000 C   0  0  0  0  0  0  0  0  0  0  0  0
   -1.4712   -3.5517    0.0000 C   0  0  0  0  0  0  0  0  0  0  0  0
   -2.7184   -2.7184    0.0000 C   0  0  0  0  0  0  0  0  0  0  0  0
   -3.5517   -1.4712    0.0000 C   0  0  0  0  0  0  0  0  0  0  0  0
   -3.8444    0.0000    0.0000 C   0  0  0  0  0  0  0  0  0  0  0  0
   -3.5517    1.4712    0.0000 C   0  0  0  0  0  0  0  0  0  0  0  0
   -2.7184    2.7184    0.0000 C   0  0  0  0  0  0  0  0  0  0  0  0
   -1.4712    3.5517    0.0000 C   0  0  0  0  0  0  0  0  0  0  0  0
    0.0000    3.8444    0.0000 C   0  0  0  0  0  0  0  0  0  0  0  0
    1.4712    3.5517    0.0000 C   0  0  0  0  0  0  0  0  0  0  0  0
    2.7184    2.7184    0.0000 C   0  0  0  0  0  0  0  0  0  0  0  0
    3.5517    1.4712    0.0000 C   0  0  0  0  0  0  0  0  0  0  0  0
  1  2  1  0
  2  3  1  0
  3  4  2  0
  4  5  1  0
  5  6  2  0
  6  7  1  0
  7  8  2  0
  8  9  1  0
  9 10  2  0
 10 11  1  0
 11 12  2  0
 12 13  1  0
 13 14  2  0
 14 15  1  0
 15 16  2  0
 16 17  1  0
 17 18  1  0
 18  3  1  0
M  END
>  <Title>  (402) 
idAAPLgen8

$$$$

     RDKit          2D

 16 16  0  0  0  0  0  0  0  0999 V2000
    5.6205   -1.2990    0.0000 C   0  0  0  0  0  0  0  0  0  0  0  0
    4.8705    0.0000    0.0000 C   0  0  0  0  0  0  0  0  0  0  0  0
    3.3705    0.0000    0.0000 C   0  0  0  0  0  0  0  0  0  0  0  0
    3.0367   -1.4624    0.0000 C   0  0  0  0  0  0  0  0  0  0  0  0
    2.1015   -2.6351    0.0000 C   0  0  0  0  0  0  0  0  0  0  0  0
    0.7500   -3.2860    0.0000 C   0  0  0  0  0  0  0  0  0  0  0  0
   -0.7500   -3.2860    0.0000 C   0  0  0  0  0  0  0  0  0  0  0  0
   -2.1015   -2.6351    0.0000 C   0  0  0  0  0  0  0  0  0  0  0  0
   -3.0367   -1.4624    0.0000 C   0  0  0  0  0  0  0  0  0  0  0  0
   -3.3705    0.0000    0.0000 C   0  0  0  0  0  0  0  0  0  0  0  0
   -3.0367    1.4624    0.0000 C   0  0  0  0  0  0  0  0  0  0  0  0
   -2.1015    2.6351    0.0000 C   0  0  0  0  0  0  0  0  0  0  0  0
   -0.7500    3.2860    0.0000 C   0  0  0  0  0  0  0  0  0  0  0  0
    0.7500    3.2860    0.0000 C   0  0  0  0  0  0  0  0  0  0  0  0
    2.1015    2.6351    0.0000 C   0  0  0  0  0  0  0  0  0  0  0  0
    3.0367    1.4624    0.0000 C   0  0  0  0  0  0  0  0  0  0  0  0
  1  2  1  0
  2  3  1  0
  3  4  1  0
  4  5  1  0
  5  6  1  0
  6  7  1  0
  7  8  1  0
  8  9  1  0
  9 10  1  0
 10 11  1  0
 11 12  1  0
 12 13  1  0
 13 14  1  0
 14 15  1  0
 15 16  1  0
 16  3  1  0
M  END
>  <Title>  (403) 
idAAPMgen8

$$$$

     RDKit          2D

 28 30  0  0  0  0  0  0  0  0999 V2000
    8.2500   -3.8971    0.0000 N   0  0  0  0  0  0  0  0  0  0  0  0
    7.5000   -2.5981    0.0000 N   0  0  0  0  0  0  0  0  0  0  0  0
    6.0000   -2.5981    0.0000 C   0  0  0  0  0  0  0  0  0  0  0  0
    5.2500   -3.8971    0.0000 O   0  0  0  0  0  0  0  0  0  0  0  0
    5.2500   -1.2990    0.0000 N   0  0  0  0  0  0  0  0  0  0  0  0
    3.7500   -1.2990    0.0000 C   0  0  0  0  0  0  0  0  0  0  0  0
    3.0000    0.0000    0.0000 C   0  0  0  0  0  0  0  0  0  0  0  0
    1.5000    0.0000    0.0000 C   0  0  0  0  0  0  0  0  0  0  0  0
    0.7500   -1.2990    0.0000 C   0  0  0  0  0  0  0  0  0  0  0  0
   -0.7500   -1.2990    0.0000 C   0  0  0  0  0  0  0  0  0  0  0  0
   -1.5000    0.0000    0.0000 C   0  0  0  0  0  0  0  0  0  0  0  0
   -3.0000    0.0000    0.0000 C   0  0  0  0  0  0  0  0  0  0  0  0
   -3.8817   -1.2135    0.0000 N   0  0  0  0  0  0  0  0  0  0  0  0
   -5.3083   -0.7500    0.0000 N   0  0  0  0  0  0  0  0  0  0  0  0
   -5.3083    0.7500    0.0000 N   0  0  0  0  0  0  0  0  0  0  0  0
   -3.8817    1.2135    0.0000 N   0  0  0  0  0  0  0  0  0  0  0  0
   -3.4182    2.6401    0.0000 C   0  0  0  0  0  0  0  0  0  0  0  0
   -1.9509    2.9520    0.0000 C   0  0  0  0  0  0  0  0  0  0  0  0
   -1.4874    4.3786    0.0000 C   0  0  0  0  0  0  0  0  0  0  0  0
   -2.4911    5.4933    0.0000 C   0  0  0  0  0  0  0  0  0  0  0  0
   -2.0276    6.9199    0.0000 C   0  0  0  0  0  0  0  0  0  0  0  0
   -3.0313    8.0346    0.0000 O   0  0  0  0  0  0  0  0  0  0  0  0
   -0.5604    7.2317    0.0000 N   0  0  0  0  0  0  0  0  0  0  0  0
   -0.0968    8.6583    0.0000 O   0  0  0  0  0  0  0  0  0  0  0  0
   -3.9583    5.1814    0.0000 C   0  0  0  0  0  0  0  0  0  0  0  0
   -4.4218    3.7548    0.0000 C   0  0  0  0  0  0  0  0  0  0  0  0
   -0.7500    1.2990    0.0000 C   0  0  0  0  0  0  0  0  0  0  0  0
    0.7500    1.2990    0.0000 C   0  0  0  0  0  0  0  0  0  0  0  0
  1  2  1  0
  2  3  1  0
  3  4  2  0
  3  5  1  0
  5  6  1  0
  6  7  1  0
  7  8  1  0
  8  9  2  0
  9 10  1  0
 10 11  2  0
 11 12  1  0
 12 13  2  0
 13 14  1  0
 14 15  2  0
 15 16  1  0
 16 17  1  0
 17 18  2  0
 18 19  1  0
 19 20  2  0
 20 21  1  0
 21 22  2  0
 21 23  1  0
 23 24  1  0
 20 25  1  0
 25 26  1  0
 11 27  1  0
 27 28  2  0
 28  8  1  0
 16 12  1  0
 26 17  1  0
M  END
>  <Title>  (404) 
idAAPNgen8

$$$$

     RDKit          2D

 63 71  0  0  0  0  0  0  0  0999 V2000
  -19.7460   -4.2722    0.0000 C   0  0  0  0  0  0  0  0  0  0  0  0
  -18.9960   -2.9731    0.0000 C   0  0  0  0  0  0  0  0  0  0  0  0
  -19.7460   -1.6741    0.0000 C   0  0  0  0  0  0  0  0  0  0  0  0
  -18.9960   -0.3751    0.0000 C   0  0  0  0  0  0  0  0  0  0  0  0
  -17.4960   -0.3751    0.0000 C   0  0  0  0  0  0  0  0  0  0  0  0
  -16.7460    0.9240    0.0000 C   0  0  0  0  0  0  0  0  0  0  0  0
  -17.4960    2.2230    0.0000 O   0  0  0  0  0  0  0  0  0  0  0  0
  -15.2460    0.9240    0.0000 N   0  0  0  0  0  0  0  0  0  0  0  0
  -14.4960    2.2230    0.0000 C   0  0  0  0  0  0  0  0  0  0  0  0
  -15.1061    3.5933    0.0000 N   0  0  0  0  0  0  0  0  0  0  0  0
  -13.9914    4.5970    0.0000 N   0  0  0  0  0  0  0  0  0  0  0  0
  -12.6924    3.8470    0.0000 N   0  0  0  0  0  0  0  0  0  0  0  0
  -13.0043    2.3798    0.0000 N   0  0  0  0  0  0  0  0  0  0  0  0
  -12.0006    1.2651    0.0000 C   0  0  0  0  0  0  0  0  0  0  0  0
  -12.4641   -0.1615    0.0000 N   0  0  0  0  0  0  0  0  0  0  0  0
  -11.4604   -1.2762    0.0000 N   0  0  0  0  0  0  0  0  0  0  0  0
   -9.9932   -0.9643    0.0000 N   0  0  0  0  0  0  0  0  0  0  0  0
   -9.5296    0.4622    0.0000 N   0  0  0  0  0  0  0  0  0  0  0  0
  -10.5333    1.5770    0.0000 N   0  0  0  0  0  0  0  0  0  0  0  0
  -10.0698    3.0035    0.0000 C   0  0  0  0  0  0  0  0  0  0  0  0
  -11.0735    4.1183    0.0000 N   0  0  0  0  0  0  0  0  0  0  0  0
  -10.6100    5.5448    0.0000 C   0  0  0  0  0  0  0  0  0  0  0  0
   -9.1428    5.8567    0.0000 N   0  0  0  0  0  0  0  0  0  0  0  0
   -8.1391    4.7420    0.0000 N   0  0  0  0  0  0  0  0  0  0  0  0
   -8.6026    3.3154    0.0000 N   0  0  0  0  0  0  0  0  0  0  0  0
   -7.5989    2.2007    0.0000 C   0  0  0  0  0  0  0  0  0  0  0  0
   -8.0624    0.7741    0.0000 C   0  0  0  0  0  0  0  0  0  0  0  0
   -7.0587   -0.3406    0.0000 C   0  0  0  0  0  0  0  0  0  0  0  0
   -5.5915   -0.0287    0.0000 C   0  0  0  0  0  0  0  0  0  0  0  0
   -4.5878   -1.1435    0.0000 C   0  0  0  0  0  0  0  0  0  0  0  0
   -3.1206   -0.8316    0.0000 C   0  0  0  0  0  0  0  0  0  0  0  0
   -2.1169   -1.9463    0.0000 C   0  0  0  0  0  0  0  0  0  0  0  0
   -2.5804   -3.3729    0.0000 C   0  0  0  0  0  0  0  0  0  0  0  0
   -4.0476   -3.6848    0.0000 C   0  0  0  0  0  0  0  0  0  0  0  0
   -5.0513   -2.5700    0.0000 C   0  0  0  0  0  0  0  0  0  0  0  0
   -6.5186   -2.8819    0.0000 C   0  0  0  0  0  0  0  0  0  0  0  0
   -7.5223   -1.7672    0.0000 C   0  0  0  0  0  0  0  0  0  0  0  0
   -8.9895   -2.0791    0.0000 C   0  0  0  0  0  0  0  0  0  0  0  0
   -9.4530   -3.5056    0.0000 C   0  0  0  0  0  0  0  0  0  0  0  0
   -8.4493   -4.6204    0.0000 C   0  0  0  0  0  0  0  0  0  0  0  0
   -6.9821   -4.3085    0.0000 C   0  0  0  0  0  0  0  0  0  0  0  0
   -5.9784   -5.4232    0.0000 C   0  0  0  0  0  0  0  0  0  0  0  0
   -6.4419   -6.8498    0.0000 C   0  0  0  0  0  0  0  0  0  0  0  0
   -5.4382   -7.9645    0.0000 C   0  0  0  0  0  0  0  0  0  0  0  0
   -3.9710   -7.6526    0.0000 C   0  0  0  0  0  0  0  0  0  0  0  0
   -3.5075   -6.2261    0.0000 C   0  0  0  0  0  0  0  0  0  0  0  0
   -4.5112   -5.1113    0.0000 C   0  0  0  0  0  0  0  0  0  0  0  0
   -5.1280    1.3978    0.0000 C   0  0  0  0  0  0  0  0  0  0  0  0
   -6.1317    2.5126    0.0000 C   0  0  0  0  0  0  0  0  0  0  0  0
   -5.6682    3.9391    0.0000 C   0  0  0  0  0  0  0  0  0  0  0  0
   -6.6718    5.0539    0.0000 C   0  0  0  0  0  0  0  0  0  0  0  0
   -6.2083    6.4805    0.0000 C   0  0  0  0  0  0  0  0  0  0  0  0
   -4.7411    6.7923    0.0000 C   0  0  0  0  0  0  0  0  0  0  0  0
   -4.2776    8.2189    0.0000 C   0  0  0  0  0  0  0  0  0  0  0  0
   -2.8104    8.5308    0.0000 O   0  0  0  0  0  0  0  0  0  0  0  0
   -5.2813    9.3336    0.0000 N   0  0  0  0  0  0  0  0  0  0  0  0
   -4.8177   10.7602    0.0000 O   0  0  0  0  0  0  0  0  0  0  0  0
   -3.7374    5.6776    0.0000 N   0  0  0  0  0  0  0  0  0  0  0  0
   -4.2009    4.2510    0.0000 C   0  0  0  0  0  0  0  0  0  0  0  0
   -3.1972    3.1363    0.0000 O   0  0  0  0  0  0  0  0  0  0  0  0
  -16.7460   -1.6741    0.0000 N   0  0  0  0  0  0  0  0  0  0  0  0
  -17.4960   -2.9731    0.0000 C   0  0  0  0  0  0  0  0  0  0  0  0
  -16.7460   -4.2722    0.0000 O   0  0  0  0  0  0  0  0  0  0  0  0
  1  2  1  0
  2  3  2  0
  3  4  1  0
  4  5  2  0
  5  6  1  0
  6  7  2  0
  6  8  1  0
  8  9  1  0
  9 10  2  0
 10 11  1  0
 11 12  2  0
 12 13  1  0
 13 14  1  0
 14 15  1  0
 15 16  1  0
 16 17  1  0
 17 18  2  0
 18 19  1  0
 19 20  1  0
 20 21  1  0
 21 22  1  0
 22 23  1  0
 23 24  2  0
 24 25  1  0
 25 26  1  0
 26 27  2  0
 27 28  1  0
 28 29  2  0
 29 30  1  0
 30 31  2  0
 31 32  1  0
 32 33  2  0
 33 34  1  0
 34 35  2  0
 35 36  1  0
 36 37  2  0
 37 38  1  0
 38 39  2  0
 39 40  1  0
 40 41  2  0
 41 42  1  0
 42 43  2  0
 43 44  1  0
 44 45  2  0
 45 46  1  0
 46 47  2  0
 29 48  1  0
 48 49  2  0
 49 50  1  0
 50 51  2  0
 51 52  1  0
 52 53  2  0
 53 54  1  0
 54 55  2  0
 54 56  1  0
 56 57  1  0
 53 58  1  0
 58 59  1  0
 59 60  2  0
  5 61  1  0
 61 62  1  0
 62 63  2  0
 62  2  1  0
 13  9  1  0
 19 14  1  0
 25 20  1  0
 49 26  1  0
 59 50  1  0
 35 30  1  0
 41 36  1  0
 47 42  1  0
M  END
>  <Title>  (405) 
idAAPOgen8

$$$$

     RDKit          2D

 46 52  0  0  0  0  0  0  0  0999 V2000
    0.8311   10.2038    0.0000 C   0  0  0  0  0  0  0  0  0  0  0  0
   -0.5392    9.5937    0.0000 C   0  0  0  0  0  0  0  0  0  0  0  0
   -1.7527   10.4753    0.0000 C   0  0  0  0  0  0  0  0  0  0  0  0
   -3.1230    9.8652    0.0000 C   0  0  0  0  0  0  0  0  0  0  0  0
   -3.2798    8.3735    0.0000 C   0  0  0  0  0  0  0  0  0  0  0  0
   -4.6502    7.7634    0.0000 N   0  0  0  0  0  0  0  0  0  0  0  0
   -5.9492    8.5134    0.0000 N   0  0  0  0  0  0  0  0  0  0  0  0
   -7.0639    7.5097    0.0000 N   0  0  0  0  0  0  0  0  0  0  0  0
   -6.4538    6.1393    0.0000 N   0  0  0  0  0  0  0  0  0  0  0  0
   -4.9620    6.2961    0.0000 C   0  0  0  0  0  0  0  0  0  0  0  0
   -3.9583    5.1814    0.0000 N   0  0  0  0  0  0  0  0  0  0  0  0
   -2.4911    5.4933    0.0000 N   0  0  0  0  0  0  0  0  0  0  0  0
   -1.4874    4.3786    0.0000 N   0  0  0  0  0  0  0  0  0  0  0  0
   -1.9509    2.9520    0.0000 N   0  0  0  0  0  0  0  0  0  0  0  0
   -3.4182    2.6401    0.0000 N   0  0  0  0  0  0  0  0  0  0  0  0
   -4.4218    3.7548    0.0000 N   0  0  0  0  0  0  0  0  0  0  0  0
   -5.8891    3.4430    0.0000 C   0  0  0  0  0  0  0  0  0  0  0  0
   -6.8928    4.5577    0.0000 C   0  0  0  0  0  0  0  0  0  0  0  0
   -8.3600    4.2458    0.0000 C   0  0  0  0  0  0  0  0  0  0  0  0
   -8.8235    2.8192    0.0000 C   0  0  0  0  0  0  0  0  0  0  0  0
  -10.2907    2.5074    0.0000 C   0  0  0  0  0  0  0  0  0  0  0  0
  -10.9008    1.1370    0.0000 N   0  0  0  0  0  0  0  0  0  0  0  0
  -12.3926    1.2938    0.0000 N   0  0  0  0  0  0  0  0  0  0  0  0
  -12.7045    2.7611    0.0000 N   0  0  0  0  0  0  0  0  0  0  0  0
  -11.4055    3.5111    0.0000 N   0  0  0  0  0  0  0  0  0  0  0  0
  -11.2487    5.0028    0.0000 C   0  0  0  0  0  0  0  0  0  0  0  0
   -9.8783    5.6129    0.0000 C   0  0  0  0  0  0  0  0  0  0  0  0
   -9.7215    7.1047    0.0000 C   0  0  0  0  0  0  0  0  0  0  0  0
  -10.9351    7.9864    0.0000 C   0  0  0  0  0  0  0  0  0  0  0  0
  -12.3054    7.3763    0.0000 C   0  0  0  0  0  0  0  0  0  0  0  0
  -12.4622    5.8845    0.0000 C   0  0  0  0  0  0  0  0  0  0  0  0
   -7.8198    1.7045    0.0000 C   0  0  0  0  0  0  0  0  0  0  0  0
   -6.3526    2.0164    0.0000 C   0  0  0  0  0  0  0  0  0  0  0  0
   -5.3489    0.9017    0.0000 C   0  0  0  0  0  0  0  0  0  0  0  0
   -5.8124   -0.5249    0.0000 C   0  0  0  0  0  0  0  0  0  0  0  0
   -4.8087   -1.6396    0.0000 C   0  0  0  0  0  0  0  0  0  0  0  0
   -3.3415   -1.3278    0.0000 C   0  0  0  0  0  0  0  0  0  0  0  0
   -2.3378   -2.4425    0.0000 C   0  0  0  0  0  0  0  0  0  0  0  0
   -0.8706   -2.1306    0.0000 O   0  0  0  0  0  0  0  0  0  0  0  0
   -2.8013   -3.8691    0.0000 N   0  0  0  0  0  0  0  0  0  0  0  0
   -1.7976   -4.9838    0.0000 O   0  0  0  0  0  0  0  0  0  0  0  0
   -2.8780    0.0988    0.0000 C   0  0  0  0  0  0  0  0  0  0  0  0
   -1.4108    0.4107    0.0000 C   0  0  0  0  0  0  0  0  0  0  0  0
   -3.8817    1.2135    0.0000 C   0  0  0  0  0  0  0  0  0  0  0  0
   -2.0663    7.4918    0.0000 C   0  0  0  0  0  0  0  0  0  0  0  0
   -0.6960    8.1019    0.0000 C   0  0  0  0  0  0  0  0  0  0  0  0
  1  2  1  0
  2  3  2  0
  3  4  1  0
  4  5  2  0
  5  6  1  0
  6  7  1  0
  7  8  2  0
  8  9  1  0
  9 10  2  0
 10 11  1  0
 11 12  1  0
 12 13  2  0
 13 14  1  0
 14 15  2  0
 15 16  1  0
 16 17  1  0
 17 18  2  0
 18 19  1  0
 19 20  2  0
 20 21  1  0
 21 22  2  0
 22 23  1  0
 23 24  2  0
 24 25  1  0
 25 26  1  0
 26 27  2  0
 27 28  1  0
 28 29  2  0
 29 30  1  0
 30 31  2  0
 20 32  1  0
 32 33  2  0
 33 34  1  0
 34 35  2  0
 35 36  1  0
 36 37  2  0
 37 38  1  0
 38 39  2  0
 38 40  1  0
 40 41  1  0
 37 42  1  0
 42 43  1  0
 42 44  2  0
  5 45  1  0
 45 46  2  0
 46  2  1  0
 10  6  1  0
 16 11  1  0
 33 17  1  0
 44 34  1  0
 25 21  1  0
 31 26  1  0
M  END
>  <Title>  (406) 
idAAPPgen8

$$$$

     RDKit          2D

 65 74  0  0  0  0  0  0  0  0999 V2000
    3.0000    0.0000    0.0000 C   0  0  0  0  0  0  0  0  0  0  0  0
    1.5000    0.0000    0.0000 C   0  0  0  0  0  0  0  0  0  0  0  0
    0.7500   -1.2990    0.0000 C   0  0  0  0  0  0  0  0  0  0  0  0
   -0.7500   -1.2990    0.0000 C   0  0  0  0  0  0  0  0  0  0  0  0
   -1.5000    0.0000    0.0000 C   0  0  0  0  0  0  0  0  0  0  0  0
   -3.0000    0.0000    0.0000 C   0  0  0  0  0  0  0  0  0  0  0  0
   -3.7500   -1.2990    0.0000 O   0  0  0  0  0  0  0  0  0  0  0  0
   -3.7500    1.2990    0.0000 C   0  0  0  0  0  0  0  0  0  0  0  0
   -5.2500    1.2990    0.0000 C   0  0  0  0  0  0  0  0  0  0  0  0
   -6.1317    0.0855    0.0000 N   0  0  0  0  0  0  0  0  0  0  0  0
   -7.5583    0.5490    0.0000 N   0  0  0  0  0  0  0  0  0  0  0  0
   -7.5583    2.0490    0.0000 N   0  0  0  0  0  0  0  0  0  0  0  0
   -6.1317    2.5126    0.0000 N   0  0  0  0  0  0  0  0  0  0  0  0
   -5.6682    3.9391    0.0000 C   0  0  0  0  0  0  0  0  0  0  0  0
   -4.2009    4.2510    0.0000 C   0  0  0  0  0  0  0  0  0  0  0  0
   -3.7374    5.6776    0.0000 C   0  0  0  0  0  0  0  0  0  0  0  0
   -4.7411    6.7923    0.0000 C   0  0  0  0  0  0  0  0  0  0  0  0
   -4.2776    8.2189    0.0000 C   0  0  0  0  0  0  0  0  0  0  0  0
   -5.1593    9.4324    0.0000 N   0  0  0  0  0  0  0  0  0  0  0  0
   -4.2776   10.6460    0.0000 N   0  0  0  0  0  0  0  0  0  0  0  0
   -2.8510   10.1824    0.0000 N   0  0  0  0  0  0  0  0  0  0  0  0
   -2.8510    8.6824    0.0000 N   0  0  0  0  0  0  0  0  0  0  0  0
   -1.6375    7.8008    0.0000 C   0  0  0  0  0  0  0  0  0  0  0  0
   -1.6375    6.3008    0.0000 C   0  0  0  0  0  0  0  0  0  0  0  0
   -0.2109    5.8372    0.0000 N   0  0  0  0  0  0  0  0  0  0  0  0
    0.6708    7.0508    0.0000 N   0  0  0  0  0  0  0  0  0  0  0  0
   -0.2109    8.2643    0.0000 N   0  0  0  0  0  0  0  0  0  0  0  0
    0.2526    9.6909    0.0000 C   0  0  0  0  0  0  0  0  0  0  0  0
   -0.7511   10.8056    0.0000 C   0  0  0  0  0  0  0  0  0  0  0  0
   -0.2875   12.2322    0.0000 C   0  0  0  0  0  0  0  0  0  0  0  0
    1.1797   12.5440    0.0000 C   0  0  0  0  0  0  0  0  0  0  0  0
    1.6432   13.9706    0.0000 C   0  0  0  0  0  0  0  0  0  0  0  0
    0.6395   15.0853    0.0000 C   0  0  0  0  0  0  0  0  0  0  0  0
    1.1031   16.5119    0.0000 C   0  0  0  0  0  0  0  0  0  0  0  0
    2.5703   16.8238    0.0000 C   0  0  0  0  0  0  0  0  0  0  0  0
    3.5740   15.7091    0.0000 C   0  0  0  0  0  0  0  0  0  0  0  0
    3.1104   14.2825    0.0000 C   0  0  0  0  0  0  0  0  0  0  0  0
    2.1834   11.4293    0.0000 C   0  0  0  0  0  0  0  0  0  0  0  0
    1.7199   10.0027    0.0000 C   0  0  0  0  0  0  0  0  0  0  0  0
   -6.2083    6.4805    0.0000 C   0  0  0  0  0  0  0  0  0  0  0  0
   -6.6718    5.0539    0.0000 C   0  0  0  0  0  0  0  0  0  0  0  0
   -8.1391    4.7420    0.0000 C   0  0  0  0  0  0  0  0  0  0  0  0
   -8.7492    3.3717    0.0000 C   0  0  0  0  0  0  0  0  0  0  0  0
  -10.2410    3.5285    0.0000 C   0  0  0  0  0  0  0  0  0  0  0  0
  -10.5528    4.9957    0.0000 C   0  0  0  0  0  0  0  0  0  0  0  0
  -11.9231    5.6058    0.0000 C   0  0  0  0  0  0  0  0  0  0  0  0
  -13.2222    4.8558    0.0000 N   0  0  0  0  0  0  0  0  0  0  0  0
  -14.3369    5.8595    0.0000 N   0  0  0  0  0  0  0  0  0  0  0  0
  -13.7268    7.2298    0.0000 N   0  0  0  0  0  0  0  0  0  0  0  0
  -12.2350    7.0730    0.0000 N   0  0  0  0  0  0  0  0  0  0  0  0
  -11.2313    8.1877    0.0000 C   0  0  0  0  0  0  0  0  0  0  0  0
   -9.7641    7.8759    0.0000 C   0  0  0  0  0  0  0  0  0  0  0  0
   -8.7604    8.9906    0.0000 C   0  0  0  0  0  0  0  0  0  0  0  0
   -9.2239   10.4172    0.0000 C   0  0  0  0  0  0  0  0  0  0  0  0
   -8.2202   11.5319    0.0000 C   0  0  0  0  0  0  0  0  0  0  0  0
   -6.7530   11.2200    0.0000 O   0  0  0  0  0  0  0  0  0  0  0  0
   -8.6838   12.9585    0.0000 N   0  0  0  0  0  0  0  0  0  0  0  0
   -7.6801   14.0732    0.0000 O   0  0  0  0  0  0  0  0  0  0  0  0
  -10.6911   10.7290    0.0000 N   0  0  0  0  0  0  0  0  0  0  0  0
  -11.6948    9.6143    0.0000 C   0  0  0  0  0  0  0  0  0  0  0  0
  -13.1621    9.9262    0.0000 O   0  0  0  0  0  0  0  0  0  0  0  0
   -9.2538    5.7457    0.0000 N   0  0  0  0  0  0  0  0  0  0  0  0
   -0.7500    1.2990    0.0000 N   0  0  0  0  0  0  0  0  0  0  0  0
    0.7500    1.2990    0.0000 C   0  0  0  0  0  0  0  0  0  0  0  0
    1.5000    2.5981    0.0000 O   0  0  0  0  0  0  0  0  0  0  0  0
  1  2  1  0
  2  3  2  0
  3  4  1  0
  4  5  2  0
  5  6  1  0
  6  7  2  0
  6  8  1  0
  8  9  1  0
  9 10  2  0
 10 11  1  0
 11 12  2  0
 12 13  1  0
 13 14  1  0
 14 15  2  0
 15 16  1  0
 16 17  2  0
 17 18  1  0
 18 19  2  0
 19 20  1  0
 20 21  2  0
 21 22  1  0
 22 23  1  0
 23 24  2  0
 24 25  1  0
 25 26  2  0
 26 27  1  0
 27 28  1  0
 28 29  2  0
 29 30  1  0
 30 31  2  0
 31 32  1  0
 32 33  2  0
 33 34  1  0
 34 35  2  0
 35 36  1  0
 36 37  2  0
 31 38  1  0
 38 39  2  0
 17 40  1  0
 40 41  2  0
 41 42  1  0
 42 43  2  0
 43 44  1  0
 44 45  2  0
 45 46  1  0
 46 47  2  0
 47 48  1  0
 48 49  2  0
 49 50  1  0
 50 51  1  0
 51 52  2  0
 52 53  1  0
 53 54  2  0
 54 55  1  0
 55 56  2  0
 55 57  1  0
 57 58  1  0
 54 59  1  0
 59 60  1  0
 60 61  2  0
 45 62  1  0
  5 63  1  0
 63 64  1  0
 64 65  2  0
 64  2  1  0
 13  9  1  0
 41 14  1  0
 62 42  1  0
 22 18  1  0
 27 23  1  0
 39 28  1  0
 50 46  1  0
 60 51  1  0
 37 32  1  0
M  END
>  <Title>  (407) 
idAAPQgen8

$$$$

     RDKit          2D

 13 14  0  0  0  0  0  0  0  0999 V2000
    0.7716    6.7511    0.0000 C   0  0  0  0  0  0  0  0  0  0  0  0
   -0.2487    5.6515    0.0000 O   0  0  0  0  0  0  0  0  0  0  0  0
    0.1935    4.2182    0.0000 C   0  0  0  0  0  0  0  0  0  0  0  0
    1.6559    3.8844    0.0000 C   0  0  0  0  0  0  0  0  0  0  0  0
    2.0980    2.4510    0.0000 C   0  0  0  0  0  0  0  0  0  0  0  0
    1.0777    1.3515    0.0000 C   0  0  0  0  0  0  0  0  0  0  0  0
    1.7286    0.0000    0.0000 C   0  0  0  0  0  0  0  0  0  0  0  0
    1.0777   -1.3515    0.0000 C   0  0  0  0  0  0  0  0  0  0  0  0
   -0.3846   -1.6852    0.0000 C   0  0  0  0  0  0  0  0  0  0  0  0
   -1.5574   -0.7500    0.0000 C   0  0  0  0  0  0  0  0  0  0  0  0
   -1.5574    0.7500    0.0000 C   0  0  0  0  0  0  0  0  0  0  0  0
   -0.3846    1.6852    0.0000 C   0  0  0  0  0  0  0  0  0  0  0  0
   -0.8268    3.1186    0.0000 C   0  0  0  0  0  0  0  0  0  0  0  0
  1  2  1  0
  2  3  1  0
  3  4  2  0
  4  5  1  0
  5  6  2  0
  6  7  1  0
  7  8  2  0
  8  9  1  0
  9 10  2  0
 10 11  1  0
 11 12  2  0
 12 13  1  0
 13  3  1  0
 12  6  1  0
M  END
>  <Title>  (408) 
idAAPRgen8

$$$$

     RDKit          2D

  9  9  0  0  0  0  0  0  0  0999 V2000
    3.2286   -0.0000    0.0000 C   0  0  0  0  0  0  0  0  0  0  0  0
    1.7286    0.0000    0.0000 C   0  0  0  0  0  0  0  0  0  0  0  0
    1.0777    1.3515    0.0000 C   0  0  0  0  0  0  0  0  0  0  0  0
   -0.3846    1.6852    0.0000 C   0  0  0  0  0  0  0  0  0  0  0  0
   -1.5574    0.7500    0.0000 C   0  0  0  0  0  0  0  0  0  0  0  0
   -1.5574   -0.7500    0.0000 C   0  0  0  0  0  0  0  0  0  0  0  0
   -0.3846   -1.6852    0.0000 C   0  0  0  0  0  0  0  0  0  0  0  0
    1.0777   -1.3515    0.0000 C   0  0  0  0  0  0  0  0  0  0  0  0
    2.0130   -2.5242    0.0000 O   0  0  0  0  0  0  0  0  0  0  0  0
  1  2  1  0
  2  3  1  0
  3  4  1  0
  4  5  1  0
  5  6  2  0
  6  7  1  0
  7  8  2  0
  8  9  1  0
  8  2  1  0
M  END
>  <Title>  (409) 
idAAPSgen8

$$$$

     RDKit          2D

 32 33  0  0  0  0  0  0  0  0999 V2000
   -5.7437    5.5631    0.0000 C   0  0  0  0  0  0  0  0  0  0  0  0
   -4.2937    5.9472    0.0000 C   0  0  0  0  0  0  0  0  0  0  0  0
   -4.5002    7.4329    0.0000 C   0  0  0  0  0  0  0  0  0  0  0  0
   -4.3451    8.9248    0.0000 C   0  0  0  0  0  0  0  0  0  0  0  0
   -3.8375   10.3363    0.0000 C   0  0  0  0  0  0  0  0  0  0  0  0
   -3.0069   11.5853    0.0000 C   0  0  0  0  0  0  0  0  0  0  0  0
   -1.9014   12.5993    0.0000 C   0  0  0  0  0  0  0  0  0  0  0  0
   -0.5855   13.3192    0.0000 C   0  0  0  0  0  0  0  0  0  0  0  0
    0.8645   13.7032    0.0000 C   0  0  0  0  0  0  0  0  0  0  0  0
    2.3643   13.7291    0.0000 C   0  0  0  0  0  0  0  0  0  0  0  0
    3.8267   13.3953    0.0000 C   0  0  0  0  0  0  0  0  0  0  0  0
    5.1667   12.7213    0.0000 C   0  0  0  0  0  0  0  0  0  0  0  0
    6.3065   11.7461    0.0000 C   0  0  0  0  0  0  0  0  0  0  0  0
    7.1797   10.5265    0.0000 C   0  0  0  0  0  0  0  0  0  0  0  0
    7.7358    9.1334    0.0000 C   0  0  0  0  0  0  0  0  0  0  0  0
    7.9423    7.6477    0.0000 C   0  0  0  0  0  0  0  0  0  0  0  0
    7.7872    6.1557    0.0000 C   0  0  0  0  0  0  0  0  0  0  0  0
    7.2796    4.7442    0.0000 C   0  0  0  0  0  0  0  0  0  0  0  0
    6.4489    3.4952    0.0000 C   0  0  0  0  0  0  0  0  0  0  0  0
    5.3435    2.4813    0.0000 C   0  0  0  0  0  0  0  0  0  0  0  0
    4.0275    1.7614    0.0000 C   0  0  0  0  0  0  0  0  0  0  0  0
    2.5775    1.3773    0.0000 C   0  0  0  0  0  0  0  0  0  0  0  0
    1.0777    1.3515    0.0000 C   0  0  0  0  0  0  0  0  0  0  0  0
    1.7286    0.0000    0.0000 N   0  0  0  0  0  0  0  0  0  0  0  0
    1.0777   -1.3515    0.0000 C   0  0  0  0  0  0  0  0  0  0  0  0
   -0.3846   -1.6852    0.0000 C   0  0  0  0  0  0  0  0  0  0  0  0
   -1.5574   -0.7500    0.0000 C   0  0  0  0  0  0  0  0  0  0  0  0
   -1.5574    0.7500    0.0000 C   0  0  0  0  0  0  0  0  0  0  0  0
   -0.3846    1.6852    0.0000 C   0  0  0  0  0  0  0  0  0  0  0  0
   -1.7247    2.3593    0.0000 O   0  0  0  0  0  0  0  0  0  0  0  0
   -2.8644    3.3344    0.0000 C   0  0  0  0  0  0  0  0  0  0  0  0
   -3.7377    4.5540    0.0000 C   0  0  0  0  0  0  0  0  0  0  0  0
  1  2  1  0
  2  3  2  0
  3  4  1  0
  4  5  2  0
  5  6  1  0
  6  7  2  0
  7  8  1  0
  8  9  2  0
  9 10  1  0
 10 11  2  0
 11 12  1  0
 12 13  2  0
 13 14  1  0
 14 15  2  0
 15 16  1  0
 16 17  2  0
 17 18  1  0
 18 19  2  0
 19 20  1  0
 20 21  2  0
 21 22  1  0
 22 23  2  0
 23 24  1  0
 24 25  1  0
 25 26  1  0
 26 27  2  0
 27 28  1  0
 28 29  2  0
 29 30  1  0
 30 31  1  0
 31 32  2  0
 32  2  1  0
 29 23  1  0
M  END
>  <Title>  (410) 
idAAPTgen8

$$$$

     RDKit          2D

 49 56  0  0  0  0  0  0  0  0999 V2000
   -8.0978   -1.5788    0.0000 C   0  0  0  0  0  0  0  0  0  0  0  0
   -9.0819   -0.4468    0.0000 C   0  0  0  0  0  0  0  0  0  0  0  0
  -10.5543   -0.7330    0.0000 C   0  0  0  0  0  0  0  0  0  0  0  0
  -11.5384    0.3991    0.0000 C   0  0  0  0  0  0  0  0  0  0  0  0
  -11.0501    1.8174    0.0000 C   0  0  0  0  0  0  0  0  0  0  0  0
  -12.0342    2.9494    0.0000 C   0  0  0  0  0  0  0  0  0  0  0  0
  -13.5285    2.8187    0.0000 N   0  0  0  0  0  0  0  0  0  0  0  0
  -14.1146    4.1995    0.0000 N   0  0  0  0  0  0  0  0  0  0  0  0
  -12.9825    5.1836    0.0000 N   0  0  0  0  0  0  0  0  0  0  0  0
  -11.6967    4.4110    0.0000 N   0  0  0  0  0  0  0  0  0  0  0  0
  -10.3160    4.9971    0.0000 C   0  0  0  0  0  0  0  0  0  0  0  0
   -9.1180    4.0944    0.0000 C   0  0  0  0  0  0  0  0  0  0  0  0
   -7.7373    4.6805    0.0000 C   0  0  0  0  0  0  0  0  0  0  0  0
   -7.5545    6.1693    0.0000 C   0  0  0  0  0  0  0  0  0  0  0  0
   -6.1737    6.7554    0.0000 C   0  0  0  0  0  0  0  0  0  0  0  0
   -5.9909    8.2442    0.0000 O   0  0  0  0  0  0  0  0  0  0  0  0
   -4.9758    5.8527    0.0000 N   0  0  0  0  0  0  0  0  0  0  0  0
   -3.5950    6.4388    0.0000 C   0  0  0  0  0  0  0  0  0  0  0  0
   -3.2576    7.9003    0.0000 N   0  0  0  0  0  0  0  0  0  0  0  0
   -1.7633    8.0310    0.0000 N   0  0  0  0  0  0  0  0  0  0  0  0
   -1.1772    6.6503    0.0000 N   0  0  0  0  0  0  0  0  0  0  0  0
   -2.3093    5.6662    0.0000 N   0  0  0  0  0  0  0  0  0  0  0  0
   -2.1785    4.1719    0.0000 C   0  0  0  0  0  0  0  0  0  0  0  0
   -3.5380    3.5380    0.0000 C   0  0  0  0  0  0  0  0  0  0  0  0
   -4.1719    2.1785    0.0000 C   0  0  0  0  0  0  0  0  0  0  0  0
   -3.7837    0.7296    0.0000 C   0  0  0  0  0  0  0  0  0  0  0  0
   -2.5550   -0.1307    0.0000 C   0  0  0  0  0  0  0  0  0  0  0  0
   -1.0607    0.0000    0.0000 N   0  0  0  0  0  0  0  0  0  0  0  0
    0.0000    1.0607    0.0000 N   0  0  0  0  0  0  0  0  0  0  0  0
    0.1307    2.5550    0.0000 N   0  0  0  0  0  0  0  0  0  0  0  0
   -0.7296    3.7837    0.0000 N   0  0  0  0  0  0  0  0  0  0  0  0
    0.1307    5.0124    0.0000 C   0  0  0  0  0  0  0  0  0  0  0  0
   -0.5032    6.3719    0.0000 C   0  0  0  0  0  0  0  0  0  0  0  0
    0.3572    7.6006    0.0000 C   0  0  0  0  0  0  0  0  0  0  0  0
    1.8515    7.4699    0.0000 C   0  0  0  0  0  0  0  0  0  0  0  0
    2.4854    6.1104    0.0000 C   0  0  0  0  0  0  0  0  0  0  0  0
    1.6250    4.8817    0.0000 C   0  0  0  0  0  0  0  0  0  0  0  0
   -3.4153   -1.3595    0.0000 C   0  0  0  0  0  0  0  0  0  0  0  0
   -3.1548   -2.8367    0.0000 C   0  0  0  0  0  0  0  0  0  0  0  0
   -1.7453   -3.3497    0.0000 C   0  0  0  0  0  0  0  0  0  0  0  0
   -1.4848   -4.8269    0.0000 C   0  0  0  0  0  0  0  0  0  0  0  0
   -2.6339   -5.7911    0.0000 C   0  0  0  0  0  0  0  0  0  0  0  0
   -4.0434   -5.2781    0.0000 C   0  0  0  0  0  0  0  0  0  0  0  0
   -4.3039   -3.8009    0.0000 C   0  0  0  0  0  0  0  0  0  0  0  0
   -4.6440   -0.4991    0.0000 C   0  0  0  0  0  0  0  0  0  0  0  0
   -8.7524    7.0720    0.0000 C   0  0  0  0  0  0  0  0  0  0  0  0
  -10.1332    6.4859    0.0000 C   0  0  0  0  0  0  0  0  0  0  0  0
   -9.5776    2.1036    0.0000 C   0  0  0  0  0  0  0  0  0  0  0  0
   -8.5936    0.9715    0.0000 C   0  0  0  0  0  0  0  0  0  0  0  0
  1  2  1  0
  2  3  2  0
  3  4  1  0
  4  5  2  0
  5  6  1  0
  6  7  2  0
  7  8  1  0
  8  9  2  0
  9 10  1  0
 10 11  1  0
 11 12  2  0
 12 13  1  0
 13 14  2  0
 14 15  1  0
 15 16  2  0
 15 17  1  0
 17 18  1  0
 18 19  2  0
 19 20  1  0
 20 21  2  0
 21 22  1  0
 22 23  1  0
 23 24  2  0
 24 25  1  0
 25 26  2  0
 26 27  1  0
 27 28  2  0
 28 29  1  0
 29 30  2  0
 30 31  1  0
 31 32  1  0
 32 33  2  0
 33 34  1  0
 34 35  2  0
 35 36  1  0
 36 37  2  0
 27 38  1  0
 38 39  1  0
 39 40  2  0
 40 41  1  0
 41 42  2  0
 42 43  1  0
 43 44  2  0
 38 45  2  0
 14 46  1  0
 46 47  2  0
  5 48  1  0
 48 49  2  0
 49  2  1  0
 10  6  1  0
 47 11  1  0
 22 18  1  0
 31 23  1  0
 37 32  1  0
 44 39  1  0
 45 26  1  0
M  END
>  <Title>  (411) 
idAAPUgen8

$$$$

     RDKit          2D

 16 17  0  0  0  0  0  0  0  0999 V2000
    4.2450    5.9653    0.0000 C   0  0  0  0  0  0  0  0  0  0  0  0
    2.7516    6.1053    0.0000 O   0  0  0  0  0  0  0  0  0  0  0  0
    1.8836    4.8820    0.0000 C   0  0  0  0  0  0  0  0  0  0  0  0
    2.6816    3.6119    0.0000 C   0  0  0  0  0  0  0  0  0  0  0  0
    2.3478    2.1495    0.0000 C   0  0  0  0  0  0  0  0  0  0  0  0
    1.0777    1.3515    0.0000 C   0  0  0  0  0  0  0  0  0  0  0  0
    1.7286    0.0000    0.0000 C   0  0  0  0  0  0  0  0  0  0  0  0
    1.0777   -1.3515    0.0000 C   0  0  0  0  0  0  0  0  0  0  0  0
   -0.3846   -1.6852    0.0000 C   0  0  0  0  0  0  0  0  0  0  0  0
   -1.5574   -0.7500    0.0000 C   0  0  0  0  0  0  0  0  0  0  0  0
   -1.5574    0.7500    0.0000 C   0  0  0  0  0  0  0  0  0  0  0  0
   -0.3846    1.6852    0.0000 C   0  0  0  0  0  0  0  0  0  0  0  0
   -1.1827    2.9553    0.0000 C   0  0  0  0  0  0  0  0  0  0  0  0
   -0.8489    4.4177    0.0000 C   0  0  0  0  0  0  0  0  0  0  0  0
    0.4212    5.2158    0.0000 C   0  0  0  0  0  0  0  0  0  0  0  0
    0.1699    6.6946    0.0000 O   0  0  0  0  0  0  0  0  0  0  0  0
  1  2  1  0
  2  3  1  0
  3  4  2  0
  4  5  1  0
  5  6  2  0
  6  7  1  0
  7  8  2  0
  8  9  1  0
  9 10  2  0
 10 11  1  0
 11 12  2  0
 12 13  1  0
 13 14  1  0
 14 15  1  0
 15 16  2  0
 15  3  1  0
 12  6  1  0
M  END
>  <Title>  (412) 
idAAPVgen8

$$$$

     RDKit          2D

 39 43  0  0  0  0  0  0  0  0999 V2000
  -10.7000   18.4356    0.0000 C   0  0  0  0  0  0  0  0  0  0  0  0
   -9.6314   17.3829    0.0000 C   0  0  0  0  0  0  0  0  0  0  0  0
   -8.1855   17.7820    0.0000 C   0  0  0  0  0  0  0  0  0  0  0  0
   -7.1169   16.7293    0.0000 C   0  0  0  0  0  0  0  0  0  0  0  0
   -7.4943   15.2775    0.0000 C   0  0  0  0  0  0  0  0  0  0  0  0
   -6.4257   14.2248    0.0000 C   0  0  0  0  0  0  0  0  0  0  0  0
   -6.8031   12.7731    0.0000 C   0  0  0  0  0  0  0  0  0  0  0  0
   -5.7345   11.7204    0.0000 C   0  0  0  0  0  0  0  0  0  0  0  0
   -6.1119   10.2686    0.0000 C   0  0  0  0  0  0  0  0  0  0  0  0
   -5.0433    9.2159    0.0000 C   0  0  0  0  0  0  0  0  0  0  0  0
   -5.4207    7.7642    0.0000 C   0  0  0  0  0  0  0  0  0  0  0  0
   -4.3522    6.7115    0.0000 C   0  0  0  0  0  0  0  0  0  0  0  0
   -4.7295    5.2597    0.0000 C   0  0  0  0  0  0  0  0  0  0  0  0
   -6.1755    4.8607    0.0000 N   0  0  0  0  0  0  0  0  0  0  0  0
   -6.5529    3.4089    0.0000 N   0  0  0  0  0  0  0  0  0  0  0  0
   -5.4843    2.3562    0.0000 N   0  0  0  0  0  0  0  0  0  0  0  0
   -4.0384    2.7553    0.0000 N   0  0  0  0  0  0  0  0  0  0  0  0
   -3.6610    4.2070    0.0000 N   0  0  0  0  0  0  0  0  0  0  0  0
   -2.2150    4.6061    0.0000 C   0  0  0  0  0  0  0  0  0  0  0  0
   -1.6880    6.0104    0.0000 C   0  0  0  0  0  0  0  0  0  0  0  0
   -0.1895    5.9432    0.0000 C   0  0  0  0  0  0  0  0  0  0  0  0
    0.2096    4.4972    0.0000 C   0  0  0  0  0  0  0  0  0  0  0  0
    1.6139    3.9701    0.0000 C   0  0  0  0  0  0  0  0  0  0  0  0
    2.8658    4.7965    0.0000 N   0  0  0  0  0  0  0  0  0  0  0  0
    4.0385    3.8613    0.0000 N   0  0  0  0  0  0  0  0  0  0  0  0
    3.5115    2.4569    0.0000 N   0  0  0  0  0  0  0  0  0  0  0  0
    2.0130    2.5242    0.0000 N   0  0  0  0  0  0  0  0  0  0  0  0
    1.0777    1.3515    0.0000 C   0  0  0  0  0  0  0  0  0  0  0  0
    1.7286    0.0000    0.0000 C   0  0  0  0  0  0  0  0  0  0  0  0
    1.0777   -1.3515    0.0000 C   0  0  0  0  0  0  0  0  0  0  0  0
   -0.3846   -1.6852    0.0000 C   0  0  0  0  0  0  0  0  0  0  0  0
   -1.5574   -0.7500    0.0000 C   0  0  0  0  0  0  0  0  0  0  0  0
   -1.5574    0.7500    0.0000 C   0  0  0  0  0  0  0  0  0  0  0  0
   -0.3846    1.6852    0.0000 C   0  0  0  0  0  0  0  0  0  0  0  0
   -1.0423    3.6709    0.0000 C   0  0  0  0  0  0  0  0  0  0  0  0
   -1.1096    2.1724    0.0000 O   0  0  0  0  0  0  0  0  0  0  0  0
   -8.9402   14.8785    0.0000 N   0  0  0  0  0  0  0  0  0  0  0  0
  -10.0088   15.9312    0.0000 C   0  0  0  0  0  0  0  0  0  0  0  0
  -11.4547   15.5321    0.0000 O   0  0  0  0  0  0  0  0  0  0  0  0
  1  2  1  0
  2  3  2  0
  3  4  1  0
  4  5  2  0
  5  6  1  0
  6  7  2  3
  7  8  1  0
  8  9  2  3
  9 10  1  0
 10 11  2  3
 11 12  1  0
 12 13  2  3
 13 14  1  0
 14 15  2  0
 15 16  1  0
 16 17  2  0
 17 18  1  0
 18 19  1  0
 19 20  2  0
 20 21  1  0
 21 22  2  0
 22 23  1  0
 23 24  2  0
 24 25  1  0
 25 26  2  0
 26 27  1  0
 27 28  1  0
 28 29  1  0
 29 30  2  0
 30 31  1  0
 31 32  2  0
 32 33  1  0
 33 34  1  0
 22 35  1  0
 35 36  2  0
  5 37  1  0
 37 38  1  0
 38 39  2  0
 38  2  1  0
 18 13  1  0
 35 19  1  0
 27 23  1  0
 34 28  1  0
M  END
>  <Title>  (413) 
idAAPWgen8

$$$$

     RDKit          2D

 23 25  0  0  0  0  0  0  0  0999 V2000
    3.0000    0.0000    0.0000 C   0  0  0  0  0  0  0  0  0  0  0  0
    1.5000    0.0000    0.0000 C   0  0  0  0  0  0  0  0  0  0  0  0
    0.7500   -1.2990    0.0000 C   0  0  0  0  0  0  0  0  0  0  0  0
   -0.7500   -1.2990    0.0000 C   0  0  0  0  0  0  0  0  0  0  0  0
   -1.5000    0.0000    0.0000 C   0  0  0  0  0  0  0  0  0  0  0  0
   -3.0000    0.0000    0.0000 C   0  0  0  0  0  0  0  0  0  0  0  0
   -3.8817   -1.2135    0.0000 N   0  0  0  0  0  0  0  0  0  0  0  0
   -5.3083   -0.7500    0.0000 N   0  0  0  0  0  0  0  0  0  0  0  0
   -5.3083    0.7500    0.0000 N   0  0  0  0  0  0  0  0  0  0  0  0
   -3.8817    1.2135    0.0000 N   0  0  0  0  0  0  0  0  0  0  0  0
   -3.4182    2.6401    0.0000 C   0  0  0  0  0  0  0  0  0  0  0  0
   -1.9509    2.9520    0.0000 C   0  0  0  0  0  0  0  0  0  0  0  0
   -1.4874    4.3786    0.0000 C   0  0  0  0  0  0  0  0  0  0  0  0
   -2.4911    5.4933    0.0000 C   0  0  0  0  0  0  0  0  0  0  0  0
   -2.0276    6.9199    0.0000 C   0  0  0  0  0  0  0  0  0  0  0  0
   -3.0313    8.0346    0.0000 O   0  0  0  0  0  0  0  0  0  0  0  0
   -0.5604    7.2317    0.0000 N   0  0  0  0  0  0  0  0  0  0  0  0
   -0.0968    8.6583    0.0000 O   0  0  0  0  0  0  0  0  0  0  0  0
   -3.9583    5.1814    0.0000 N   0  0  0  0  0  0  0  0  0  0  0  0
   -4.4218    3.7548    0.0000 C   0  0  0  0  0  0  0  0  0  0  0  0
   -5.8891    3.4430    0.0000 O   0  0  0  0  0  0  0  0  0  0  0  0
   -0.7500    1.2990    0.0000 N   0  0  0  0  0  0  0  0  0  0  0  0
    0.7500    1.2990    0.0000 C   0  0  0  0  0  0  0  0  0  0  0  0
  1  2  1  0
  2  3  2  0
  3  4  1  0
  4  5  2  0
  5  6  1  0
  6  7  2  0
  7  8  1  0
  8  9  2  0
  9 10  1  0
 10 11  1  0
 11 12  2  0
 12 13  1  0
 13 14  2  0
 14 15  1  0
 15 16  2  0
 15 17  1  0
 17 18  1  0
 14 19  1  0
 19 20  1  0
 20 21  2  0
  5 22  1  0
 22 23  1  0
 23  2  1  0
 10  6  1  0
 20 11  1  0
M  END
>  <Title>  (414) 
idAAPXgen8

$$$$

     RDKit          2D

  8  8  0  0  0  0  0  0  0  0999 V2000
    3.2286   -0.0000    0.0000 O   0  0  0  0  0  0  0  0  0  0  0  0
    1.7286    0.0000    0.0000 C   0  0  0  0  0  0  0  0  0  0  0  0
    1.0777    1.3515    0.0000 C   0  0  0  0  0  0  0  0  0  0  0  0
   -0.3846    1.6852    0.0000 C   0  0  0  0  0  0  0  0  0  0  0  0
   -1.5574    0.7500    0.0000 C   0  0  0  0  0  0  0  0  0  0  0  0
   -1.5574   -0.7500    0.0000 C   0  0  0  0  0  0  0  0  0  0  0  0
   -0.3846   -1.6852    0.0000 N   0  0  0  0  0  0  0  0  0  0  0  0
    1.0777   -1.3515    0.0000 C   0  0  0  0  0  0  0  0  0  0  0  0
  1  2  1  0
  2  3  2  0
  3  4  1  0
  4  5  2  0
  5  6  2  0
  6  7  2  0
  7  8  1  0
  8  2  1  0
M  END
>  <Title>  (415) 
idAAPYgen8

$$$$

     RDKit          2D

 17 17  0  0  0  0  0  0  0  0999 V2000
    5.6205   -1.2990    0.0000 C   0  0  0  0  0  0  0  0  0  0  0  0
    4.8705    0.0000    0.0000 O   0  0  0  0  0  0  0  0  0  0  0  0
    3.3705    0.0000    0.0000 C   0  0  0  0  0  0  0  0  0  0  0  0
    3.0367   -1.4624    0.0000 C   0  0  0  0  0  0  0  0  0  0  0  0
    2.1015   -2.6351    0.0000 C   0  0  0  0  0  0  0  0  0  0  0  0
    0.7500   -3.2860    0.0000 C   0  0  0  0  0  0  0  0  0  0  0  0
   -0.7500   -3.2860    0.0000 C   0  0  0  0  0  0  0  0  0  0  0  0
   -2.1015   -2.6351    0.0000 C   0  0  0  0  0  0  0  0  0  0  0  0
   -3.0367   -1.4624    0.0000 C   0  0  0  0  0  0  0  0  0  0  0  0
   -3.3705    0.0000    0.0000 C   0  0  0  0  0  0  0  0  0  0  0  0
   -3.0367    1.4624    0.0000 C   0  0  0  0  0  0  0  0  0  0  0  0
   -2.1015    2.6351    0.0000 C   0  0  0  0  0  0  0  0  0  0  0  0
   -0.7500    3.2860    0.0000 C   0  0  0  0  0  0  0  0  0  0  0  0
    0.7500    3.2860    0.0000 C   0  0  0  0  0  0  0  0  0  0  0  0
    1.0838    4.7484    0.0000 F   0  0  0  0  0  0  0  0  0  0  0  0
    2.1015    2.6351    0.0000 C   0  0  0  0  0  0  0  0  0  0  0  0
    3.0367    1.4624    0.0000 C   0  0  0  0  0  0  0  0  0  0  0  0
  1  2  1  0
  2  3  1  0
  3  4  2  0
  4  5  1  0
  5  6  2  0
  6  7  1  0
  7  8  2  0
  8  9  1  0
  9 10  2  0
 10 11  1  0
 11 12  2  0
 12 13  1  0
 13 14  2  0
 14 15  1  0
 14 16  1  0
 16 17  2  0
 17  3  1  0
M  END
>  <Title>  (416) 
idAAPZgen8

$$$$

     RDKit          2D

 28 28  0  0  0  0  0  0  0  0999 V2000
    9.4960   -1.2990    0.0000 C   0  0  0  0  0  0  0  0  0  0  0  0
    7.9960   -1.2990    0.0000 C   0  0  0  0  0  0  0  0  0  0  0  0
    7.2460   -2.5981    0.0000 O   0  0  0  0  0  0  0  0  0  0  0  0
    7.2460    0.0000    0.0000 O   0  0  0  0  0  0  0  0  0  0  0  0
    5.7460    0.0000    0.0000 C   0  0  0  0  0  0  0  0  0  0  0  0
    5.5502   -1.4872    0.0000 C   0  0  0  0  0  0  0  0  0  0  0  0
    4.9762   -2.8730    0.0000 C   0  0  0  0  0  0  0  0  0  0  0  0
    4.0630   -4.0630    0.0000 C   0  0  0  0  0  0  0  0  0  0  0  0
    2.8730   -4.9762    0.0000 C   0  0  0  0  0  0  0  0  0  0  0  0
    1.4872   -5.5502    0.0000 C   0  0  0  0  0  0  0  0  0  0  0  0
   -0.0000   -5.7460    0.0000 C   0  0  0  0  0  0  0  0  0  0  0  0
   -1.4872   -5.5502    0.0000 C   0  0  0  0  0  0  0  0  0  0  0  0
   -2.8730   -4.9762    0.0000 C   0  0  0  0  0  0  0  0  0  0  0  0
   -4.0630   -4.0630    0.0000 C   0  0  0  0  0  0  0  0  0  0  0  0
   -4.9762   -2.8730    0.0000 C   0  0  0  0  0  0  0  0  0  0  0  0
   -5.5502   -1.4872    0.0000 C   0  0  0  0  0  0  0  0  0  0  0  0
   -5.7460    0.0000    0.0000 C   0  0  0  0  0  0  0  0  0  0  0  0
   -5.5502    1.4872    0.0000 C   0  0  0  0  0  0  0  0  0  0  0  0
   -4.9762    2.8730    0.0000 C   0  0  0  0  0  0  0  0  0  0  0  0
   -4.0630    4.0630    0.0000 C   0  0  0  0  0  0  0  0  0  0  0  0
   -2.8730    4.9762    0.0000 C   0  0  0  0  0  0  0  0  0  0  0  0
   -1.4872    5.5502    0.0000 C   0  0  0  0  0  0  0  0  0  0  0  0
    0.0000    5.7460    0.0000 C   0  0  0  0  0  0  0  0  0  0  0  0
    1.4872    5.5502    0.0000 C   0  0  0  0  0  0  0  0  0  0  0  0
    2.8730    4.9762    0.0000 C   0  0  0  0  0  0  0  0  0  0  0  0
    4.0630    4.0630    0.0000 C   0  0  0  0  0  0  0  0  0  0  0  0
    4.9762    2.8730    0.0000 C   0  0  0  0  0  0  0  0  0  0  0  0
    5.5502    1.4872    0.0000 C   0  0  0  0  0  0  0  0  0  0  0  0
  1  2  1  0
  2  3  2  0
  2  4  1  0
  4  5  1  0
  5  6  2  0
  6  7  1  0
  7  8  2  0
  8  9  1  0
  9 10  2  0
 10 11  1  0
 11 12  2  0
 12 13  1  0
 13 14  2  0
 14 15  1  0
 15 16  2  0
 16 17  1  0
 17 18  2  0
 18 19  1  0
 19 20  2  0
 20 21  1  0
 21 22  2  0
 22 23  1  0
 23 24  2  0
 24 25  1  0
 25 26  2  0
 26 27  1  0
 27 28  2  0
 28  5  1  0
M  END
>  <Title>  (417) 
idAAQAgen8

$$$$

     RDKit          2D

 43 49  0  0  0  0  0  0  0  0999 V2000
    4.7848    7.6672    0.0000 C   0  0  0  0  0  0  0  0  0  0  0  0
    3.2848    7.6672    0.0000 C   0  0  0  0  0  0  0  0  0  0  0  0
    2.5348    8.9662    0.0000 C   0  0  0  0  0  0  0  0  0  0  0  0
    1.0348    8.9662    0.0000 C   0  0  0  0  0  0  0  0  0  0  0  0
    0.2848    7.6672    0.0000 C   0  0  0  0  0  0  0  0  0  0  0  0
   -1.2152    7.6672    0.0000 C   0  0  0  0  0  0  0  0  0  0  0  0
   -2.0969    8.8807    0.0000 N   0  0  0  0  0  0  0  0  0  0  0  0
   -3.5235    8.4172    0.0000 N   0  0  0  0  0  0  0  0  0  0  0  0
   -3.5235    6.9172    0.0000 N   0  0  0  0  0  0  0  0  0  0  0  0
   -2.0969    6.4536    0.0000 N   0  0  0  0  0  0  0  0  0  0  0  0
   -1.6334    5.0270    0.0000 C   0  0  0  0  0  0  0  0  0  0  0  0
   -0.1343    4.9747    0.0000 C   0  0  0  0  0  0  0  0  0  0  0  0
    0.9804    3.9710    0.0000 C   0  0  0  0  0  0  0  0  0  0  0  0
    1.1892    2.4856    0.0000 C   0  0  0  0  0  0  0  0  0  0  0  0
    2.6564    2.1737    0.0000 C   0  0  0  0  0  0  0  0  0  0  0  0
    3.1199    0.7471    0.0000 C   0  0  0  0  0  0  0  0  0  0  0  0
    4.5871    0.4353    0.0000 C   0  0  0  0  0  0  0  0  0  0  0  0
    5.5908    1.5500    0.0000 C   0  0  0  0  0  0  0  0  0  0  0  0
    7.0581    1.2381    0.0000 C   0  0  0  0  0  0  0  0  0  0  0  0
    5.1273    2.9766    0.0000 C   0  0  0  0  0  0  0  0  0  0  0  0
    6.1310    4.0913    0.0000 O   0  0  0  0  0  0  0  0  0  0  0  0
    3.6601    3.2884    0.0000 N   0  0  0  0  0  0  0  0  0  0  0  0
    0.3943    1.2135    0.0000 C   0  0  0  0  0  0  0  0  0  0  0  0
    1.2760    0.0000    0.0000 N   0  0  0  0  0  0  0  0  0  0  0  0
    0.3943   -1.2135    0.0000 N   0  0  0  0  0  0  0  0  0  0  0  0
   -1.0323   -0.7500    0.0000 N   0  0  0  0  0  0  0  0  0  0  0  0
   -1.0323    0.7500    0.0000 N   0  0  0  0  0  0  0  0  0  0  0  0
   -2.4231    1.3119    0.0000 C   0  0  0  0  0  0  0  0  0  0  0  0
   -3.8248    0.7779    0.0000 C   0  0  0  0  0  0  0  0  0  0  0  0
   -5.1163    1.5408    0.0000 C   0  0  0  0  0  0  0  0  0  0  0  0
   -5.3250    3.0262    0.0000 C   0  0  0  0  0  0  0  0  0  0  0  0
   -6.7539    3.4826    0.0000 C   0  0  0  0  0  0  0  0  0  0  0  0
   -7.8636    2.4733    0.0000 C   0  0  0  0  0  0  0  0  0  0  0  0
   -9.2925    2.9297    0.0000 C   0  0  0  0  0  0  0  0  0  0  0  0
   -9.6117    4.3954    0.0000 C   0  0  0  0  0  0  0  0  0  0  0  0
   -8.5020    5.4046    0.0000 C   0  0  0  0  0  0  0  0  0  0  0  0
   -7.0731    4.9482    0.0000 C   0  0  0  0  0  0  0  0  0  0  0  0
   -4.2938    4.1155    0.0000 C   0  0  0  0  0  0  0  0  0  0  0  0
   -2.8154    4.1036    0.0000 C   0  0  0  0  0  0  0  0  0  0  0  0
   -3.1273    2.6363    0.0000 C   0  0  0  0  0  0  0  0  0  0  0  0
   -4.6127    2.4276    0.0000 O   0  0  0  0  0  0  0  0  0  0  0  0
    1.0348    6.3681    0.0000 N   0  0  0  0  0  0  0  0  0  0  0  0
    2.5348    6.3681    0.0000 C   0  0  0  0  0  0  0  0  0  0  0  0
  1  2  1  0
  2  3  2  0
  3  4  1  0
  4  5  2  0
  5  6  1  0
  6  7  2  0
  7  8  1  0
  8  9  2  0
  9 10  1  0
 10 11  1  0
 11 12  2  0
 12 13  1  0
 13 14  2  0
 14 15  1  0
 15 16  2  0
 16 17  1  0
 17 18  2  0
 18 19  1  0
 18 20  1  0
 20 21  2  0
 20 22  1  0
 14 23  1  0
 23 24  2  0
 24 25  1  0
 25 26  2  0
 26 27  1  0
 27 28  1  0
 28 29  2  0
 29 30  1  0
 30 31  2  0
 31 32  1  0
 32 33  2  0
 33 34  1  0
 34 35  2  0
 35 36  1  0
 36 37  2  0
 31 38  1  0
 38 39  2  0
 39 40  1  0
 40 41  2  0
  5 42  1  0
 42 43  1  0
 43  2  1  0
 10  6  1  0
 39 11  1  0
 22 15  1  0
 27 23  1  0
 40 28  1  0
 37 32  1  0
M  END
>  <Title>  (418) 
idAAQBgen8

$$$$

     RDKit          2D

 40 44  0  0  0  0  0  0  0  0999 V2000
    3.9786   -1.2990    0.0000 C   0  0  0  0  0  0  0  0  0  0  0  0
    3.2286   -0.0000    0.0000 O   0  0  0  0  0  0  0  0  0  0  0  0
    1.7286    0.0000    0.0000 C   0  0  0  0  0  0  0  0  0  0  0  0
    1.0777    1.3515    0.0000 C   0  0  0  0  0  0  0  0  0  0  0  0
   -0.3846    1.6852    0.0000 C   0  0  0  0  0  0  0  0  0  0  0  0
   -1.5574    0.7500    0.0000 C   0  0  0  0  0  0  0  0  0  0  0  0
   -2.9088    1.4008    0.0000 C   0  0  0  0  0  0  0  0  0  0  0  0
   -4.2297    0.6900    0.0000 N   0  0  0  0  0  0  0  0  0  0  0  0
   -5.3139    1.7266    0.0000 N   0  0  0  0  0  0  0  0  0  0  0  0
   -4.6631    3.0781    0.0000 N   0  0  0  0  0  0  0  0  0  0  0  0
   -3.1767    2.8767    0.0000 N   0  0  0  0  0  0  0  0  0  0  0  0
   -2.1401    3.9609    0.0000 C   0  0  0  0  0  0  0  0  0  0  0  0
   -2.4079    5.4368    0.0000 C   0  0  0  0  0  0  0  0  0  0  0  0
   -1.0870    6.1476    0.0000 C   0  0  0  0  0  0  0  0  0  0  0  0
   -0.0028    5.1110    0.0000 C   0  0  0  0  0  0  0  0  0  0  0  0
    1.4731    5.3789    0.0000 C   0  0  0  0  0  0  0  0  0  0  0  0
    1.6223    6.8714    0.0000 O   0  0  0  0  0  0  0  0  0  0  0  0
    2.4430    4.2346    0.0000 N   0  0  0  0  0  0  0  0  0  0  0  0
    3.9189    4.5024    0.0000 C   0  0  0  0  0  0  0  0  0  0  0  0
    5.0030    3.4658    0.0000 N   0  0  0  0  0  0  0  0  0  0  0  0
    6.3239    4.1767    0.0000 N   0  0  0  0  0  0  0  0  0  0  0  0
    6.0561    5.6525    0.0000 N   0  0  0  0  0  0  0  0  0  0  0  0
    4.5697    5.8539    0.0000 N   0  0  0  0  0  0  0  0  0  0  0  0
    3.8589    7.1748    0.0000 C   0  0  0  0  0  0  0  0  0  0  0  0
    2.3595    7.2197    0.0000 C   0  0  0  0  0  0  0  0  0  0  0  0
    1.6487    8.5406    0.0000 C   0  0  0  0  0  0  0  0  0  0  0  0
    2.4373    9.8166    0.0000 C   0  0  0  0  0  0  0  0  0  0  0  0
    1.7265   11.1375    0.0000 C   0  0  0  0  0  0  0  0  0  0  0  0
    0.2271   11.1823    0.0000 O   0  0  0  0  0  0  0  0  0  0  0  0
    2.5150   12.4135    0.0000 N   0  0  0  0  0  0  0  0  0  0  0  0
    1.8042   13.7344    0.0000 O   0  0  0  0  0  0  0  0  0  0  0  0
    3.9366    9.7717    0.0000 N   0  0  0  0  0  0  0  0  0  0  0  0
    4.6474    8.4508    0.0000 C   0  0  0  0  0  0  0  0  0  0  0  0
    6.1467    8.4059    0.0000 O   0  0  0  0  0  0  0  0  0  0  0  0
   -0.6537    3.7596    0.0000 C   0  0  0  0  0  0  0  0  0  0  0  0
    0.0571    2.4387    0.0000 O   0  0  0  0  0  0  0  0  0  0  0  0
   -1.5574   -0.7500    0.0000 N   0  0  0  0  0  0  0  0  0  0  0  0
   -0.3846   -1.6852    0.0000 C   0  0  0  0  0  0  0  0  0  0  0  0
   -0.7184   -3.1476    0.0000 O   0  0  0  0  0  0  0  0  0  0  0  0
    1.0777   -1.3515    0.0000 N   0  0  0  0  0  0  0  0  0  0  0  0
  1  2  1  0
  2  3  1  0
  3  4  2  0
  4  5  1  0
  5  6  2  0
  6  7  1  0
  7  8  2  0
  8  9  1  0
  9 10  2  0
 10 11  1  0
 11 12  1  0
 12 13  2  0
 13 14  1  0
 14 15  2  0
 15 16  1  0
 16 17  2  0
 16 18  1  0
 18 19  1  0
 19 20  2  0
 20 21  1  0
 21 22  2  0
 22 23  1  0
 23 24  1  0
 24 25  2  0
 25 26  1  0
 26 27  2  0
 27 28  1  0
 28 29  2  0
 28 30  1  0
 30 31  1  0
 27 32  1  0
 32 33  1  0
 33 34  2  0
 15 35  1  0
 35 36  2  0
  6 37  1  0
 37 38  1  0
 38 39  2  0
 38 40  1  0
 40  3  1  0
 11  7  1  0
 35 12  1  0
 23 19  1  0
 33 24  1  0
M  END
>  <Title>  (419) 
idAAQCgen8

$$$$

     RDKit          2D

 26 26  0  0  0  0  0  0  0  0999 V2000
    7.4840    0.0000    0.0000 C   0  0  0  0  0  0  0  0  0  0  0  0
    5.9840    0.0000    0.0000 N   0  0  0  0  0  0  0  0  0  0  0  0
    5.7960    1.4882    0.0000 C   0  0  0  0  0  0  0  0  0  0  0  0
    5.2439    2.8828    0.0000 C   0  0  0  0  0  0  0  0  0  0  0  0
    4.3622    4.0964    0.0000 C   0  0  0  0  0  0  0  0  0  0  0  0
    3.2064    5.0525    0.0000 C   0  0  0  0  0  0  0  0  0  0  0  0
    1.8492    5.6912    0.0000 C   0  0  0  0  0  0  0  0  0  0  0  0
    0.3757    5.9722    0.0000 C   0  0  0  0  0  0  0  0  0  0  0  0
   -1.1213    5.8781    0.0000 C   0  0  0  0  0  0  0  0  0  0  0  0
   -2.5479    5.4145    0.0000 C   0  0  0  0  0  0  0  0  0  0  0  0
   -3.8144    4.6108    0.0000 C   0  0  0  0  0  0  0  0  0  0  0  0
   -4.8412    3.5173    0.0000 C   0  0  0  0  0  0  0  0  0  0  0  0
   -5.5638    2.2029    0.0000 C   0  0  0  0  0  0  0  0  0  0  0  0
   -5.9369    0.7500    0.0000 C   0  0  0  0  0  0  0  0  0  0  0  0
   -5.9369   -0.7500    0.0000 C   0  0  0  0  0  0  0  0  0  0  0  0
   -5.5638   -2.2029    0.0000 C   0  0  0  0  0  0  0  0  0  0  0  0
   -4.8412   -3.5173    0.0000 C   0  0  0  0  0  0  0  0  0  0  0  0
   -3.8144   -4.6108    0.0000 C   0  0  0  0  0  0  0  0  0  0  0  0
   -2.5479   -5.4145    0.0000 C   0  0  0  0  0  0  0  0  0  0  0  0
   -1.1213   -5.8781    0.0000 C   0  0  0  0  0  0  0  0  0  0  0  0
    0.3757   -5.9722    0.0000 C   0  0  0  0  0  0  0  0  0  0  0  0
    1.8492   -5.6912    0.0000 C   0  0  0  0  0  0  0  0  0  0  0  0
    3.2064   -5.0525    0.0000 C   0  0  0  0  0  0  0  0  0  0  0  0
    4.3622   -4.0964    0.0000 C   0  0  0  0  0  0  0  0  0  0  0  0
    5.2439   -2.8828    0.0000 C   0  0  0  0  0  0  0  0  0  0  0  0
    5.7960   -1.4882    0.0000 C   0  0  0  0  0  0  0  0  0  0  0  0
  1  2  1  0
  2  3  1  0
  3  4  2  0
  4  5  1  0
  5  6  2  0
  6  7  1  0
  7  8  2  0
  8  9  1  0
  9 10  2  0
 10 11  1  0
 11 12  2  0
 12 13  1  0
 13 14  2  0
 14 15  1  0
 15 16  2  0
 16 17  1  0
 17 18  2  0
 18 19  1  0
 19 20  2  0
 20 21  1  0
 21 22  2  0
 22 23  1  0
 23 24  2  0
 24 25  1  0
 25 26  2  0
 26  2  1  0
M  END
>  <Title>  (420) 
idAAQDgen8

$$$$

     RDKit          2D

 30 33  0  0  0  0  0  0  0  0999 V2000
    1.3240   -6.3062    0.0000 C   0  0  0  0  0  0  0  0  0  0  0  0
    0.7500   -4.9204    0.0000 C   0  0  0  0  0  0  0  0  0  0  0  0
    1.8107   -3.8597    0.0000 C   0  0  0  0  0  0  0  0  0  0  0  0
    1.8107   -2.3597    0.0000 C   0  0  0  0  0  0  0  0  0  0  0  0
    0.7500   -1.2990    0.0000 C   0  0  0  0  0  0  0  0  0  0  0  0
    1.5000    0.0000    0.0000 C   0  0  0  0  0  0  0  0  0  0  0  0
    0.7500    1.2990    0.0000 C   0  0  0  0  0  0  0  0  0  0  0  0
   -0.7500    1.2990    0.0000 C   0  0  0  0  0  0  0  0  0  0  0  0
   -1.5000    0.0000    0.0000 C   0  0  0  0  0  0  0  0  0  0  0  0
   -0.7500   -1.2990    0.0000 C   0  0  0  0  0  0  0  0  0  0  0  0
   -1.8107   -2.3597    0.0000 C   0  0  0  0  0  0  0  0  0  0  0  0
   -2.5077   -1.0315    0.0000 O   0  0  0  0  0  0  0  0  0  0  0  0
   -3.7422   -0.1794    0.0000 C   0  0  0  0  0  0  0  0  0  0  0  0
   -5.2313    0.0014    0.0000 C   0  0  0  0  0  0  0  0  0  0  0  0
   -6.6338   -0.5305    0.0000 C   0  0  0  0  0  0  0  0  0  0  0  0
   -7.4859    0.7040    0.0000 C   0  0  0  0  0  0  0  0  0  0  0  0
   -6.8429    2.0591    0.0000 C   0  0  0  0  0  0  0  0  0  0  0  0
   -7.6950    3.2936    0.0000 C   0  0  0  0  0  0  0  0  0  0  0  0
   -9.1901    3.1729    0.0000 C   0  0  0  0  0  0  0  0  0  0  0  0
   -9.8331    1.8177    0.0000 C   0  0  0  0  0  0  0  0  0  0  0  0
   -8.9810    0.5833    0.0000 C   0  0  0  0  0  0  0  0  0  0  0  0
   -7.6285   -1.6533    0.0000 C   0  0  0  0  0  0  0  0  0  0  0  0
   -7.9875   -3.1097    0.0000 C   0  0  0  0  0  0  0  0  0  0  0  0
   -7.6285   -4.5661    0.0000 C   0  0  0  0  0  0  0  0  0  0  0  0
   -6.6338   -5.6889    0.0000 C   0  0  0  0  0  0  0  0  0  0  0  0
   -5.2313   -6.2208    0.0000 C   0  0  0  0  0  0  0  0  0  0  0  0
   -3.7422   -6.0400    0.0000 C   0  0  0  0  0  0  0  0  0  0  0  0
   -2.5077   -5.1879    0.0000 C   0  0  0  0  0  0  0  0  0  0  0  0
   -1.8107   -3.8597    0.0000 C   0  0  0  0  0  0  0  0  0  0  0  0
   -0.7500   -4.9204    0.0000 N   0  0  0  0  0  0  0  0  0  0  0  0
  1  2  1  0
  2  3  2  0
  3  4  1  0
  4  5  2  0
  5  6  1  0
  6  7  2  0
  7  8  1  0
  8  9  2  0
  9 10  1  0
 10 11  1  0
 11 12  1  0
 12 13  1  0
 13 14  1  0
 14 15  2  0
 15 16  1  0
 16 17  2  0
 17 18  1  0
 18 19  2  0
 19 20  1  0
 20 21  2  0
 15 22  1  0
 22 23  2  0
 23 24  1  0
 24 25  2  0
 25 26  1  0
 26 27  2  0
 27 28  1  0
 28 29  2  0
 29 30  1  0
 30  2  1  0
 10  5  1  0
 29 11  1  0
 21 16  1  0
M  END
>  <Title>  (421) 
idAAQEgen8

$$$$

     RDKit          2D

 25 28  0  0  0  0  0  0  0  0999 V2000
   -5.8805    1.4581    0.0000 C   0  0  0  0  0  0  0  0  0  0  0  0
   -5.1500    2.7682    0.0000 C   0  0  0  0  0  0  0  0  0  0  0  0
   -3.6527    2.6785    0.0000 C   0  0  0  0  0  0  0  0  0  0  0  0
   -2.6490    3.7932    0.0000 C   0  0  0  0  0  0  0  0  0  0  0  0
   -2.8947    5.2729    0.0000 C   0  0  0  0  0  0  0  0  0  0  0  0
   -1.6681    6.1363    0.0000 C   0  0  0  0  0  0  0  0  0  0  0  0
   -1.6457    7.6362    0.0000 N   0  0  0  0  0  0  0  0  0  0  0  0
   -0.2123    8.0783    0.0000 N   0  0  0  0  0  0  0  0  0  0  0  0
    0.6511    6.8517    0.0000 N   0  0  0  0  0  0  0  0  0  0  0  0
   -0.2487    5.6515    0.0000 N   0  0  0  0  0  0  0  0  0  0  0  0
    0.1935    4.2182    0.0000 C   0  0  0  0  0  0  0  0  0  0  0  0
   -0.8268    3.1186    0.0000 C   0  0  0  0  0  0  0  0  0  0  0  0
   -0.3846    1.6852    0.0000 C   0  0  0  0  0  0  0  0  0  0  0  0
    1.0777    1.3515    0.0000 C   0  0  0  0  0  0  0  0  0  0  0  0
    1.3013   -0.1318    0.0000 C   0  0  0  0  0  0  0  0  0  0  0  0
    2.6003   -0.8818    0.0000 C   0  0  0  0  0  0  0  0  0  0  0  0
    3.9967   -0.3338    0.0000 C   0  0  0  0  0  0  0  0  0  0  0  0
    4.4388    1.0996    0.0000 C   0  0  0  0  0  0  0  0  0  0  0  0
    3.5938    2.3389    0.0000 C   0  0  0  0  0  0  0  0  0  0  0  0
    2.0980    2.4510    0.0000 C   0  0  0  0  0  0  0  0  0  0  0  0
    1.6559    3.8844    0.0000 C   0  0  0  0  0  0  0  0  0  0  0  0
    2.6761    4.9840    0.0000 O   0  0  0  0  0  0  0  0  0  0  0  0
   -4.2048    6.0034    0.0000 N   0  0  0  0  0  0  0  0  0  0  0  0
   -5.5928    5.4346    0.0000 C   0  0  0  0  0  0  0  0  0  0  0  0
   -6.0134    3.9948    0.0000 N   0  0  0  0  0  0  0  0  0  0  0  0
  1  2  1  0
  2  3  2  0
  3  4  1  0
  4  5  2  0
  5  6  1  0
  6  7  2  0
  7  8  1  0
  8  9  2  0
  9 10  1  0
 10 11  1  0
 11 12  2  0
 12 13  1  0
 13 14  2  0
 14 15  1  0
 15 16  2  0
 16 17  1  0
 17 18  2  0
 18 19  1  0
 19 20  2  0
 20 21  1  0
 21 22  2  0
  5 23  1  0
 23 24  1  0
 24 25  1  0
 25  2  1  0
 10  6  1  0
 21 11  1  0
 20 14  1  0
M  END
>  <Title>  (422) 
idAAQFgen8

$$$$

     RDKit          2D

 58 66  0  0  0  0  0  0  0  0999 V2000
    3.0000    0.0000    0.0000 C   0  0  0  0  0  0  0  0  0  0  0  0
    1.5000    0.0000    0.0000 C   0  0  0  0  0  0  0  0  0  0  0  0
    0.7500   -1.2990    0.0000 C   0  0  0  0  0  0  0  0  0  0  0  0
   -0.7500   -1.2990    0.0000 C   0  0  0  0  0  0  0  0  0  0  0  0
   -1.5000    0.0000    0.0000 C   0  0  0  0  0  0  0  0  0  0  0  0
   -3.0000    0.0000    0.0000 C   0  0  0  0  0  0  0  0  0  0  0  0
   -3.8817   -1.2135    0.0000 N   0  0  0  0  0  0  0  0  0  0  0  0
   -5.3083   -0.7500    0.0000 N   0  0  0  0  0  0  0  0  0  0  0  0
   -5.3083    0.7500    0.0000 N   0  0  0  0  0  0  0  0  0  0  0  0
   -3.8817    1.2135    0.0000 N   0  0  0  0  0  0  0  0  0  0  0  0
   -3.4182    2.6401    0.0000 C   0  0  0  0  0  0  0  0  0  0  0  0
   -1.9509    2.9520    0.0000 C   0  0  0  0  0  0  0  0  0  0  0  0
   -1.4874    4.3786    0.0000 C   0  0  0  0  0  0  0  0  0  0  0  0
   -2.4911    5.4933    0.0000 C   0  0  0  0  0  0  0  0  0  0  0  0
   -2.0276    6.9199    0.0000 C   0  0  0  0  0  0  0  0  0  0  0  0
   -3.0313    8.0346    0.0000 O   0  0  0  0  0  0  0  0  0  0  0  0
   -0.5604    7.2317    0.0000 N   0  0  0  0  0  0  0  0  0  0  0  0
   -0.0968    8.6583    0.0000 C   0  0  0  0  0  0  0  0  0  0  0  0
   -0.9785    9.8718    0.0000 N   0  0  0  0  0  0  0  0  0  0  0  0
   -0.0968   11.0854    0.0000 N   0  0  0  0  0  0  0  0  0  0  0  0
    1.3298   10.6218    0.0000 N   0  0  0  0  0  0  0  0  0  0  0  0
    1.3298    9.1218    0.0000 N   0  0  0  0  0  0  0  0  0  0  0  0
    2.5433    8.2402    0.0000 C   0  0  0  0  0  0  0  0  0  0  0  0
    2.3865    6.7484    0.0000 C   0  0  0  0  0  0  0  0  0  0  0  0
    3.6000    5.8667    0.0000 C   0  0  0  0  0  0  0  0  0  0  0  0
    4.9703    6.4768    0.0000 C   0  0  0  0  0  0  0  0  0  0  0  0
    5.1271    7.9686    0.0000 C   0  0  0  0  0  0  0  0  0  0  0  0
    3.9136    8.8503    0.0000 C   0  0  0  0  0  0  0  0  0  0  0  0
    4.0704   10.3421    0.0000 C   0  0  0  0  0  0  0  0  0  0  0  0
    2.8569   11.2237    0.0000 C   0  0  0  0  0  0  0  0  0  0  0  0
    3.0137   12.7155    0.0000 C   0  0  0  0  0  0  0  0  0  0  0  0
    4.3840   13.3256    0.0000 C   0  0  0  0  0  0  0  0  0  0  0  0
    5.5975   12.4439    0.0000 C   0  0  0  0  0  0  0  0  0  0  0  0
    5.4407   10.9522    0.0000 C   0  0  0  0  0  0  0  0  0  0  0  0
    6.6542   10.0705    0.0000 C   0  0  0  0  0  0  0  0  0  0  0  0
    8.0246   10.6806    0.0000 C   0  0  0  0  0  0  0  0  0  0  0  0
    9.2381    9.7989    0.0000 C   0  0  0  0  0  0  0  0  0  0  0  0
    9.0813    8.3071    0.0000 C   0  0  0  0  0  0  0  0  0  0  0  0
    7.7110    7.6970    0.0000 C   0  0  0  0  0  0  0  0  0  0  0  0
    6.4974    8.5787    0.0000 C   0  0  0  0  0  0  0  0  0  0  0  0
   -3.9583    5.1814    0.0000 C   0  0  0  0  0  0  0  0  0  0  0  0
   -4.4218    3.7548    0.0000 C   0  0  0  0  0  0  0  0  0  0  0  0
   -5.8891    3.4430    0.0000 N   0  0  0  0  0  0  0  0  0  0  0  0
   -6.3526    2.0164    0.0000 N   0  0  0  0  0  0  0  0  0  0  0  0
   -7.8198    1.7045    0.0000 N   0  0  0  0  0  0  0  0  0  0  0  0
   -8.8235    2.8192    0.0000 N   0  0  0  0  0  0  0  0  0  0  0  0
   -8.3600    4.2458    0.0000 N   0  0  0  0  0  0  0  0  0  0  0  0
   -6.8928    4.5577    0.0000 N   0  0  0  0  0  0  0  0  0  0  0  0
   -6.4292    5.9843    0.0000 C   0  0  0  0  0  0  0  0  0  0  0  0
   -4.9620    6.2961    0.0000 C   0  0  0  0  0  0  0  0  0  0  0  0
   -4.4985    7.7227    0.0000 C   0  0  0  0  0  0  0  0  0  0  0  0
   -5.5022    8.8374    0.0000 C   0  0  0  0  0  0  0  0  0  0  0  0
   -5.0387   10.2640    0.0000 C   0  0  0  0  0  0  0  0  0  0  0  0
   -6.9694    8.5256    0.0000 C   0  0  0  0  0  0  0  0  0  0  0  0
   -7.9731    9.6403    0.0000 O   0  0  0  0  0  0  0  0  0  0  0  0
   -7.4329    7.0990    0.0000 N   0  0  0  0  0  0  0  0  0  0  0  0
   -0.7500    1.2990    0.0000 N   0  0  0  0  0  0  0  0  0  0  0  0
    0.7500    1.2990    0.0000 N   0  0  0  0  0  0  0  0  0  0  0  0
  1  2  1  0
  2  3  2  0
  3  4  1  0
  4  5  2  0
  5  6  1  0
  6  7  2  0
  7  8  1  0
  8  9  2  0
  9 10  1  0
 10 11  1  0
 11 12  2  0
 12 13  1  0
 13 14  2  0
 14 15  1  0
 15 16  2  0
 15 17  1  0
 17 18  1  0
 18 19  2  0
 19 20  1  0
 20 21  2  0
 21 22  1  0
 22 23  1  0
 23 24  2  0
 24 25  1  0
 25 26  2  0
 26 27  1  0
 27 28  2  0
 28 29  1  0
 29 30  2  0
 30 31  1  0
 31 32  2  0
 32 33  1  0
 33 34  2  0
 34 35  1  0
 35 36  2  0
 36 37  1  0
 37 38  2  0
 38 39  1  0
 39 40  2  0
 14 41  1  0
 41 42  2  0
 42 43  1  0
 43 44  1  0
 44 45  2  0
 45 46  1  0
 46 47  2  0
 47 48  1  0
 48 49  1  0
 49 50  2  0
 50 51  1  0
 51 52  2  0
 52 53  1  0
 52 54  1  0
 54 55  2  0
 54 56  1  0
  5 57  1  0
 57 58  2  0
 58  2  1  0
 10  6  1  0
 42 11  1  0
 48 43  1  0
 56 49  1  0
 22 18  1  0
 28 23  1  0
 34 29  1  0
 40 35  1  0
M  END
>  <Title>  (423) 
idAAQGgen8

$$$$

     RDKit          2D

 44 50  0  0  0  0  0  0  0  0999 V2000
   -5.6321   10.5120    0.0000 C   0  0  0  0  0  0  0  0  0  0  0  0
   -4.4186    9.6303    0.0000 C   0  0  0  0  0  0  0  0  0  0  0  0
   -4.5754    8.1386    0.0000 C   0  0  0  0  0  0  0  0  0  0  0  0
   -3.3619    7.2569    0.0000 C   0  0  0  0  0  0  0  0  0  0  0  0
   -1.9916    7.8670    0.0000 C   0  0  0  0  0  0  0  0  0  0  0  0
   -0.7780    6.9853    0.0000 C   0  0  0  0  0  0  0  0  0  0  0  0
    0.6485    7.4488    0.0000 N   0  0  0  0  0  0  0  0  0  0  0  0
    1.5302    6.2353    0.0000 N   0  0  0  0  0  0  0  0  0  0  0  0
    0.6485    5.0218    0.0000 N   0  0  0  0  0  0  0  0  0  0  0  0
   -0.7780    5.4853    0.0000 N   0  0  0  0  0  0  0  0  0  0  0  0
   -1.9916    4.6036    0.0000 C   0  0  0  0  0  0  0  0  0  0  0  0
   -3.4182    5.0672    0.0000 N   0  0  0  0  0  0  0  0  0  0  0  0
   -4.2998    3.8536    0.0000 N   0  0  0  0  0  0  0  0  0  0  0  0
   -3.4182    2.6401    0.0000 N   0  0  0  0  0  0  0  0  0  0  0  0
   -1.9916    3.1036    0.0000 N   0  0  0  0  0  0  0  0  0  0  0  0
   -0.7780    2.2220    0.0000 C   0  0  0  0  0  0  0  0  0  0  0  0
    0.6485    2.6855    0.0000 C   0  0  0  0  0  0  0  0  0  0  0  0
    1.5302    1.4720    0.0000 C   0  0  0  0  0  0  0  0  0  0  0  0
    0.6485    0.2584    0.0000 C   0  0  0  0  0  0  0  0  0  0  0  0
    1.1121   -1.1682    0.0000 C   0  0  0  0  0  0  0  0  0  0  0  0
    0.1084   -2.2829    0.0000 O   0  0  0  0  0  0  0  0  0  0  0  0
    2.5793   -1.4800    0.0000 N   0  0  0  0  0  0  0  0  0  0  0  0
    3.0428   -2.9066    0.0000 C   0  0  0  0  0  0  0  0  0  0  0  0
    2.1611   -4.1201    0.0000 N   0  0  0  0  0  0  0  0  0  0  0  0
    3.0428   -5.3337    0.0000 C   0  0  0  0  0  0  0  0  0  0  0  0
    4.4694   -4.8701    0.0000 N   0  0  0  0  0  0  0  0  0  0  0  0
    4.4694   -3.3701    0.0000 N   0  0  0  0  0  0  0  0  0  0  0  0
    5.6829   -2.4885    0.0000 C   0  0  0  0  0  0  0  0  0  0  0  0
    7.0532   -3.0986    0.0000 C   0  0  0  0  0  0  0  0  0  0  0  0
    8.2668   -2.2169    0.0000 C   0  0  0  0  0  0  0  0  0  0  0  0
    8.1100   -0.7251    0.0000 C   0  0  0  0  0  0  0  0  0  0  0  0
    9.3235    0.1566    0.0000 C   0  0  0  0  0  0  0  0  0  0  0  0
   10.6938   -0.4535    0.0000 C   0  0  0  0  0  0  0  0  0  0  0  0
   11.9073    0.4282    0.0000 C   0  0  0  0  0  0  0  0  0  0  0  0
   11.7506    1.9199    0.0000 C   0  0  0  0  0  0  0  0  0  0  0  0
   10.3802    2.5300    0.0000 C   0  0  0  0  0  0  0  0  0  0  0  0
    9.1667    1.6484    0.0000 C   0  0  0  0  0  0  0  0  0  0  0  0
    6.7397   -0.1150    0.0000 C   0  0  0  0  0  0  0  0  0  0  0  0
    5.5261   -0.9967    0.0000 C   0  0  0  0  0  0  0  0  0  0  0  0
   -0.7780    0.7220    0.0000 C   0  0  0  0  0  0  0  0  0  0  0  0
   -1.9916   -0.1597    0.0000 O   0  0  0  0  0  0  0  0  0  0  0  0
   -1.8348    9.3588    0.0000 N   0  0  0  0  0  0  0  0  0  0  0  0
   -3.0483   10.2405    0.0000 C   0  0  0  0  0  0  0  0  0  0  0  0
   -2.8915   11.7322    0.0000 O   0  0  0  0  0  0  0  0  0  0  0  0
  1  2  1  0
  2  3  2  0
  3  4  1  0
  4  5  2  0
  5  6  1  0
  6  7  2  0
  7  8  1  0
  8  9  2  0
  9 10  1  0
 10 11  1  0
 11 12  1  0
 12 13  1  0
 13 14  2  0
 14 15  1  0
 15 16  1  0
 16 17  2  0
 17 18  1  0
 18 19  2  0
 19 20  1  0
 20 21  2  0
 20 22  1  0
 22 23  1  0
 23 24  2  0
 24 25  1  0
 25 26  2  0
 26 27  1  0
 27 28  1  0
 28 29  2  0
 29 30  1  0
 30 31  2  0
 31 32  1  0
 32 33  2  0
 33 34  1  0
 34 35  2  0
 35 36  1  0
 36 37  2  0
 31 38  1  0
 38 39  2  0
 19 40  1  0
 40 41  2  0
  5 42  1  0
 42 43  1  0
 43 44  2  0
 43  2  1  0
 10  6  1  0
 15 11  1  0
 40 16  1  0
 27 23  1  0
 39 28  1  0
 37 32  1  0
M  END
>  <Title>  (424) 
idAAQHgen8

$$$$

     RDKit          2D

 34 38  0  0  0  0  0  0  0  0999 V2000
    3.0000    0.0000    0.0000 C   0  0  0  0  0  0  0  0  0  0  0  0
    1.5000    0.0000    0.0000 C   0  0  0  0  0  0  0  0  0  0  0  0
    0.7500   -1.2990    0.0000 C   0  0  0  0  0  0  0  0  0  0  0  0
   -0.7500   -1.2990    0.0000 C   0  0  0  0  0  0  0  0  0  0  0  0
   -1.5000    0.0000    0.0000 C   0  0  0  0  0  0  0  0  0  0  0  0
   -3.0000    0.0000    0.0000 C   0  0  0  0  0  0  0  0  0  0  0  0
   -3.7500   -1.2990    0.0000 O   0  0  0  0  0  0  0  0  0  0  0  0
   -3.7500    1.2990    0.0000 N   0  0  0  0  0  0  0  0  0  0  0  0
   -5.2500    1.2990    0.0000 C   0  0  0  0  0  0  0  0  0  0  0  0
   -6.1317    0.0855    0.0000 N   0  0  0  0  0  0  0  0  0  0  0  0
   -7.5583    0.5490    0.0000 N   0  0  0  0  0  0  0  0  0  0  0  0
   -7.5583    2.0490    0.0000 N   0  0  0  0  0  0  0  0  0  0  0  0
   -6.1317    2.5126    0.0000 N   0  0  0  0  0  0  0  0  0  0  0  0
   -5.6682    3.9391    0.0000 C   0  0  0  0  0  0  0  0  0  0  0  0
   -6.5498    5.1527    0.0000 C   0  0  0  0  0  0  0  0  0  0  0  0
   -5.6682    6.3662    0.0000 C   0  0  0  0  0  0  0  0  0  0  0  0
   -4.2416    5.9027    0.0000 C   0  0  0  0  0  0  0  0  0  0  0  0
   -3.0280    6.7844    0.0000 C   0  0  0  0  0  0  0  0  0  0  0  0
   -1.6577    6.1742    0.0000 C   0  0  0  0  0  0  0  0  0  0  0  0
   -0.4442    7.0559    0.0000 C   0  0  0  0  0  0  0  0  0  0  0  0
   -0.6010    8.5477    0.0000 C   0  0  0  0  0  0  0  0  0  0  0  0
   -1.9713    9.1578    0.0000 C   0  0  0  0  0  0  0  0  0  0  0  0
   -3.1848    8.2761    0.0000 C   0  0  0  0  0  0  0  0  0  0  0  0
   -4.5552    8.8862    0.0000 C   0  0  0  0  0  0  0  0  0  0  0  0
   -4.7119   10.3780    0.0000 C   0  0  0  0  0  0  0  0  0  0  0  0
   -6.0823   10.9881    0.0000 C   0  0  0  0  0  0  0  0  0  0  0  0
   -7.2958   10.1064    0.0000 C   0  0  0  0  0  0  0  0  0  0  0  0
   -7.1390    8.6147    0.0000 C   0  0  0  0  0  0  0  0  0  0  0  0
   -5.7687    8.0046    0.0000 C   0  0  0  0  0  0  0  0  0  0  0  0
   -4.2416    4.4027    0.0000 C   0  0  0  0  0  0  0  0  0  0  0  0
   -3.0280    3.5210    0.0000 O   0  0  0  0  0  0  0  0  0  0  0  0
   -0.7500    1.2990    0.0000 N   0  0  0  0  0  0  0  0  0  0  0  0
    0.7500    1.2990    0.0000 C   0  0  0  0  0  0  0  0  0  0  0  0
    1.5000    2.5981    0.0000 O   0  0  0  0  0  0  0  0  0  0  0  0
  1  2  1  0
  2  3  2  0
  3  4  1  0
  4  5  2  0
  5  6  1  0
  6  7  2  0
  6  8  1  0
  8  9  1  0
  9 10  2  0
 10 11  1  0
 11 12  2  0
 12 13  1  0
 13 14  1  0
 14 15  2  0
 15 16  1  0
 16 17  2  0
 17 18  1  0
 18 19  2  0
 19 20  1  0
 20 21  2  0
 21 22  1  0
 22 23  2  0
 23 24  1  0
 24 25  2  0
 25 26  1  0
 26 27  2  0
 27 28  1  0
 28 29  2  0
 17 30  1  0
 30 31  2  0
  5 32  1  0
 32 33  1  0
 33 34  2  0
 33  2  1  0
 13  9  1  0
 30 14  1  0
 23 18  1  0
 29 24  1  0
M  END
>  <Title>  (425) 
idAAQIgen8

$$$$

     RDKit          2D

 39 40  0  0  0  0  0  0  0  0999 V2000
    6.7714    8.1139    0.0000 C   0  0  0  0  0  0  0  0  0  0  0  0
    6.1375    6.7544    0.0000 O   0  0  0  0  0  0  0  0  0  0  0  0
    6.9978    5.5257    0.0000 C   0  0  0  0  0  0  0  0  0  0  0  0
    8.4074    6.0387    0.0000 C   0  0  0  0  0  0  0  0  0  0  0  0
    9.8846    5.7782    0.0000 C   0  0  0  0  0  0  0  0  0  0  0  0
   11.0336    4.8141    0.0000 C   0  0  0  0  0  0  0  0  0  0  0  0
   11.5467    3.4045    0.0000 C   0  0  0  0  0  0  0  0  0  0  0  0
   11.2862    1.9273    0.0000 C   0  0  0  0  0  0  0  0  0  0  0  0
   10.3220    0.7782    0.0000 C   0  0  0  0  0  0  0  0  0  0  0  0
    8.9125    0.2652    0.0000 C   0  0  0  0  0  0  0  0  0  0  0  0
    7.4353    0.5257    0.0000 C   0  0  0  0  0  0  0  0  0  0  0  0
    6.2862    1.4899    0.0000 C   0  0  0  0  0  0  0  0  0  0  0  0
    6.4603    0.0000    0.0000 C   0  0  0  0  0  0  0  0  0  0  0  0
    6.2862   -1.4899    0.0000 C   0  0  0  0  0  0  0  0  0  0  0  0
    5.7732   -2.8994    0.0000 C   0  0  0  0  0  0  0  0  0  0  0  0
    4.9489   -4.1526    0.0000 C   0  0  0  0  0  0  0  0  0  0  0  0
    3.8578   -5.1820    0.0000 C   0  0  0  0  0  0  0  0  0  0  0  0
    2.5588   -5.9320    0.0000 C   0  0  0  0  0  0  0  0  0  0  0  0
    1.1218   -6.3622    0.0000 C   0  0  0  0  0  0  0  0  0  0  0  0
   -0.3756   -6.4494    0.0000 C   0  0  0  0  0  0  0  0  0  0  0  0
   -1.8528   -6.1889    0.0000 C   0  0  0  0  0  0  0  0  0  0  0  0
   -3.2302   -5.5948    0.0000 C   0  0  0  0  0  0  0  0  0  0  0  0
   -4.4334   -4.6991    0.0000 C   0  0  0  0  0  0  0  0  0  0  0  0
   -5.3975   -3.5500    0.0000 C   0  0  0  0  0  0  0  0  0  0  0  0
   -6.0707   -2.2096    0.0000 C   0  0  0  0  0  0  0  0  0  0  0  0
   -6.4167   -0.7500    0.0000 C   0  0  0  0  0  0  0  0  0  0  0  0
   -6.4167    0.7500    0.0000 C   0  0  0  0  0  0  0  0  0  0  0  0
   -6.0707    2.2096    0.0000 C   0  0  0  0  0  0  0  0  0  0  0  0
   -5.3975    3.5500    0.0000 C   0  0  0  0  0  0  0  0  0  0  0  0
   -4.4334    4.6991    0.0000 C   0  0  0  0  0  0  0  0  0  0  0  0
   -3.2302    5.5948    0.0000 C   0  0  0  0  0  0  0  0  0  0  0  0
   -1.8528    6.1889    0.0000 C   0  0  0  0  0  0  0  0  0  0  0  0
   -0.3756    6.4494    0.0000 C   0  0  0  0  0  0  0  0  0  0  0  0
    1.1218    6.3622    0.0000 C   0  0  0  0  0  0  0  0  0  0  0  0
    2.5588    5.9320    0.0000 C   0  0  0  0  0  0  0  0  0  0  0  0
    3.8578    5.1820    0.0000 C   0  0  0  0  0  0  0  0  0  0  0  0
    4.9489    4.1526    0.0000 C   0  0  0  0  0  0  0  0  0  0  0  0
    5.7732    2.8994    0.0000 C   0  0  0  0  0  0  0  0  0  0  0  0
    6.0336    4.3766    0.0000 N   0  0  0  0  0  0  0  0  0  0  0  0
  1  2  1  0
  2  3  1  0
  3  4  2  0
  4  5  1  0
  5  6  2  0
  6  7  1  0
  7  8  2  0
  8  9  1  0
  9 10  2  0
 10 11  1  0
 11 12  2  0
 12 13  1  0
 13 14  2  0
 14 15  1  0
 15 16  2  0
 16 17  1  0
 17 18  2  0
 18 19  1  0
 19 20  2  0
 20 21  1  0
 21 22  2  0
 22 23  1  0
 23 24  2  0
 24 25  1  0
 25 26  2  0
 26 27  1  0
 27 28  2  0
 28 29  1  0
 29 30  2  0
 30 31  1  0
 31 32  2  0
 32 33  1  0
 33 34  2  0
 34 35  1  0
 35 36  2  0
 36 37  1  0
 37 38  2  0
 38 39  1  0
 39  3  1  0
 38 12  1  0
M  END
>  <Title>  (426) 
idAAQJgen8

$$$$

     RDKit          2D

 23 23  0  0  0  0  0  0  0  0999 V2000
    6.5321    0.0000    0.0000 C   0  0  0  0  0  0  0  0  0  0  0  0
    5.0321    0.0000    0.0000 C   0  0  0  0  0  0  0  0  0  0  0  0
    4.8086    1.4832    0.0000 C   0  0  0  0  0  0  0  0  0  0  0  0
    4.1577    2.8347    0.0000 C   0  0  0  0  0  0  0  0  0  0  0  0
    3.1375    3.9343    0.0000 C   0  0  0  0  0  0  0  0  0  0  0  0
    1.8384    4.6843    0.0000 C   0  0  0  0  0  0  0  0  0  0  0  0
    0.3761    5.0181    0.0000 C   0  0  0  0  0  0  0  0  0  0  0  0
   -1.1198    4.9060    0.0000 C   0  0  0  0  0  0  0  0  0  0  0  0
   -2.5161    4.3580    0.0000 C   0  0  0  0  0  0  0  0  0  0  0  0
   -3.6888    3.4227    0.0000 C   0  0  0  0  0  0  0  0  0  0  0  0
   -4.5338    2.1834    0.0000 C   0  0  0  0  0  0  0  0  0  0  0  0
   -4.9759    0.7500    0.0000 C   0  0  0  0  0  0  0  0  0  0  0  0
   -4.9759   -0.7500    0.0000 C   0  0  0  0  0  0  0  0  0  0  0  0
   -4.5338   -2.1834    0.0000 C   0  0  0  0  0  0  0  0  0  0  0  0
   -3.6888   -3.4227    0.0000 C   0  0  0  0  0  0  0  0  0  0  0  0
   -2.5161   -4.3580    0.0000 C   0  0  0  0  0  0  0  0  0  0  0  0
   -1.1198   -4.9060    0.0000 C   0  0  0  0  0  0  0  0  0  0  0  0
    0.3761   -5.0181    0.0000 C   0  0  0  0  0  0  0  0  0  0  0  0
    1.8384   -4.6843    0.0000 C   0  0  0  0  0  0  0  0  0  0  0  0
    3.1375   -3.9343    0.0000 C   0  0  0  0  0  0  0  0  0  0  0  0
    4.1577   -2.8347    0.0000 C   0  0  0  0  0  0  0  0  0  0  0  0
    4.8086   -1.4832    0.0000 C   0  0  0  0  0  0  0  0  0  0  0  0
    6.2419   -1.9254    0.0000 C   0  0  0  0  0  0  0  0  0  0  0  0
  1  2  1  0
  2  3  2  0
  3  4  1  0
  4  5  2  0
  5  6  2  0
  6  7  1  0
  7  8  2  0
  8  9  1  0
  9 10  2  0
 10 11  1  0
 11 12  2  0
 12 13  1  0
 13 14  2  0
 14 15  1  0
 15 16  2  0
 16 17  1  0
 17 18  2  0
 18 19  1  0
 19 20  2  0
 20 21  1  0
 21 22  2  0
 22 23  1  0
 22  2  1  0
M  END
>  <Title>  (427) 
idAAQKgen8

$$$$

     RDKit          2D

 21 21  0  0  0  0  0  0  0  0999 V2000
    7.5944   -1.2990    0.0000 C   0  0  0  0  0  0  0  0  0  0  0  0
    6.0944   -1.2990    0.0000 C   0  0  0  0  0  0  0  0  0  0  0  0
    5.3444   -2.5981    0.0000 C   0  0  0  0  0  0  0  0  0  0  0  0
    6.0944   -3.8971    0.0000 O   0  0  0  0  0  0  0  0  0  0  0  0
    5.3444    0.0000    0.0000 N   0  0  0  0  0  0  0  0  0  0  0  0
    3.8444    0.0000    0.0000 C   0  0  0  0  0  0  0  0  0  0  0  0
    3.5517   -1.4712    0.0000 C   0  0  0  0  0  0  0  0  0  0  0  0
    2.7184   -2.7184    0.0000 C   0  0  0  0  0  0  0  0  0  0  0  0
    1.4712   -3.5517    0.0000 C   0  0  0  0  0  0  0  0  0  0  0  0
   -0.0000   -3.8444    0.0000 C   0  0  0  0  0  0  0  0  0  0  0  0
   -1.4712   -3.5517    0.0000 C   0  0  0  0  0  0  0  0  0  0  0  0
   -2.7184   -2.7184    0.0000 C   0  0  0  0  0  0  0  0  0  0  0  0
   -3.5517   -1.4712    0.0000 C   0  0  0  0  0  0  0  0  0  0  0  0
   -3.8444    0.0000    0.0000 C   0  0  0  0  0  0  0  0  0  0  0  0
   -3.5517    1.4712    0.0000 C   0  0  0  0  0  0  0  0  0  0  0  0
   -2.7184    2.7184    0.0000 C   0  0  0  0  0  0  0  0  0  0  0  0
   -1.4712    3.5517    0.0000 C   0  0  0  0  0  0  0  0  0  0  0  0
    0.0000    3.8444    0.0000 C   0  0  0  0  0  0  0  0  0  0  0  0
    1.4712    3.5517    0.0000 C   0  0  0  0  0  0  0  0  0  0  0  0
    2.7184    2.7184    0.0000 C   0  0  0  0  0  0  0  0  0  0  0  0
    3.5517    1.4712    0.0000 C   0  0  0  0  0  0  0  0  0  0  0  0
  1  2  1  0
  2  3  1  0
  3  4  1  0
  2  5  1  0
  5  6  1  0
  6  7  2  0
  7  8  1  0
  8  9  2  0
  9 10  1  0
 10 11  2  0
 11 12  1  0
 12 13  2  0
 13 14  1  0
 14 15  2  0
 15 16  1  0
 16 17  2  0
 17 18  1  0
 18 19  2  0
 19 20  1  0
 20 21  2  0
 21  6  1  0
M  END
>  <Title>  (428) 
idAAQLgen8

$$$$

     RDKit          2D

 28 31  0  0  0  0  0  0  0  0999 V2000
    3.0000    0.0000    0.0000 C   0  0  0  0  0  0  0  0  0  0  0  0
    1.5000    0.0000    0.0000 C   0  0  0  0  0  0  0  0  0  0  0  0
    0.7500   -1.2990    0.0000 C   0  0  0  0  0  0  0  0  0  0  0  0
   -0.7500   -1.2990    0.0000 C   0  0  0  0  0  0  0  0  0  0  0  0
   -1.5000    0.0000    0.0000 C   0  0  0  0  0  0  0  0  0  0  0  0
   -3.0000    0.0000    0.0000 C   0  0  0  0  0  0  0  0  0  0  0  0
   -3.8817   -1.2135    0.0000 N   0  0  0  0  0  0  0  0  0  0  0  0
   -5.3083   -0.7500    0.0000 N   0  0  0  0  0  0  0  0  0  0  0  0
   -5.3083    0.7500    0.0000 N   0  0  0  0  0  0  0  0  0  0  0  0
   -3.8817    1.2135    0.0000 N   0  0  0  0  0  0  0  0  0  0  0  0
   -3.4182    2.6401    0.0000 C   0  0  0  0  0  0  0  0  0  0  0  0
   -1.9509    2.9520    0.0000 C   0  0  0  0  0  0  0  0  0  0  0  0
   -1.4874    4.3786    0.0000 C   0  0  0  0  0  0  0  0  0  0  0  0
   -2.4911    5.4933    0.0000 C   0  0  0  0  0  0  0  0  0  0  0  0
   -3.9583    5.1814    0.0000 C   0  0  0  0  0  0  0  0  0  0  0  0
   -4.4218    3.7548    0.0000 C   0  0  0  0  0  0  0  0  0  0  0  0
   -5.8891    3.4430    0.0000 C   0  0  0  0  0  0  0  0  0  0  0  0
   -6.8928    4.5577    0.0000 C   0  0  0  0  0  0  0  0  0  0  0  0
   -8.3600    4.2458    0.0000 C   0  0  0  0  0  0  0  0  0  0  0  0
   -8.8235    2.8192    0.0000 C   0  0  0  0  0  0  0  0  0  0  0  0
  -10.2907    2.5074    0.0000 C   0  0  0  0  0  0  0  0  0  0  0  0
  -10.7543    1.0808    0.0000 O   0  0  0  0  0  0  0  0  0  0  0  0
  -11.2944    3.6221    0.0000 N   0  0  0  0  0  0  0  0  0  0  0  0
  -12.7617    3.3102    0.0000 O   0  0  0  0  0  0  0  0  0  0  0  0
   -7.8198    1.7045    0.0000 C   0  0  0  0  0  0  0  0  0  0  0  0
   -6.3526    2.0164    0.0000 C   0  0  0  0  0  0  0  0  0  0  0  0
   -0.7500    1.2990    0.0000 C   0  0  0  0  0  0  0  0  0  0  0  0
    0.7500    1.2990    0.0000 N   0  0  0  0  0  0  0  0  0  0  0  0
  1  2  1  0
  2  3  2  0
  3  4  1  0
  4  5  2  0
  5  6  1  0
  6  7  2  0
  7  8  1  0
  8  9  2  0
  9 10  1  0
 10 11  1  0
 11 12  1  0
 12 13  1  0
 13 14  1  0
 14 15  1  0
 15 16  1  0
 16 17  1  0
 17 18  2  0
 18 19  1  0
 19 20  2  0
 20 21  1  0
 21 22  2  0
 21 23  1  0
 23 24  1  0
 20 25  1  0
 25 26  1  0
  5 27  1  0
 27 28  1  0
 28  2  1  0
 10  6  1  0
 16 11  1  0
 26 17  1  0
M  END
>  <Title>  (429) 
idAAQMgen8

$$$$

     RDKit          2D

 20 21  0  0  0  0  0  0  0  0999 V2000
    4.3915    7.9094    0.0000 C   0  0  0  0  0  0  0  0  0  0  0  0
    3.0807    7.1801    0.0000 O   0  0  0  0  0  0  0  0  0  0  0  0
    3.0569    5.6803    0.0000 C   0  0  0  0  0  0  0  0  0  0  0  0
    4.4581    5.1449    0.0000 C   0  0  0  0  0  0  0  0  0  0  0  0
    5.1874    3.8342    0.0000 C   0  0  0  0  0  0  0  0  0  0  0  0
    4.9035    2.3613    0.0000 C   0  0  0  0  0  0  0  0  0  0  0  0
    3.7393    1.4154    0.0000 C   0  0  0  0  0  0  0  0  0  0  0  0
    2.2395    1.4392    0.0000 C   0  0  0  0  0  0  0  0  0  0  0  0
    2.6621    0.0000    0.0000 C   0  0  0  0  0  0  0  0  0  0  0  0
    2.2395   -1.4392    0.0000 C   0  0  0  0  0  0  0  0  0  0  0  0
    1.1059   -2.4215    0.0000 C   0  0  0  0  0  0  0  0  0  0  0  0
   -0.3789   -2.6350    0.0000 C   0  0  0  0  0  0  0  0  0  0  0  0
   -1.7433   -2.0119    0.0000 C   0  0  0  0  0  0  0  0  0  0  0  0
   -2.5543   -0.7500    0.0000 C   0  0  0  0  0  0  0  0  0  0  0  0
   -2.5543    0.7500    0.0000 C   0  0  0  0  0  0  0  0  0  0  0  0
   -1.7433    2.0119    0.0000 C   0  0  0  0  0  0  0  0  0  0  0  0
   -0.3789    2.6350    0.0000 C   0  0  0  0  0  0  0  0  0  0  0  0
    1.1059    2.4215    0.0000 C   0  0  0  0  0  0  0  0  0  0  0  0
    0.8689    3.9027    0.0000 C   0  0  0  0  0  0  0  0  0  0  0  0
    1.6394    5.1897    0.0000 C   0  0  0  0  0  0  0  0  0  0  0  0
  1  2  1  0
  2  3  1  0
  3  4  2  0
  4  5  1  0
  5  6  2  0
  6  7  1  0
  7  8  2  0
  8  9  1  0
  9 10  2  0
 10 11  1  0
 11 12  2  0
 12 13  1  0
 13 14  2  0
 14 15  1  0
 15 16  2  0
 16 17  1  0
 17 18  2  0
 18 19  1  0
 19 20  2  0
 20  3  1  0
 18  8  1  0
M  END
>  <Title>  (430) 
idAAQNgen8

$$$$

     RDKit          2D

 44 49  0  0  0  0  0  0  0  0999 V2000
    3.0000    0.0000    0.0000 C   0  0  0  0  0  0  0  0  0  0  0  0
    1.5000    0.0000    0.0000 C   0  0  0  0  0  0  0  0  0  0  0  0
    0.7500   -1.2990    0.0000 C   0  0  0  0  0  0  0  0  0  0  0  0
   -0.7500   -1.2990    0.0000 C   0  0  0  0  0  0  0  0  0  0  0  0
   -1.5000    0.0000    0.0000 C   0  0  0  0  0  0  0  0  0  0  0  0
   -3.0000    0.0000    0.0000 N   0  0  0  0  0  0  0  0  0  0  0  0
   -3.8817   -1.2135    0.0000 N   0  0  0  0  0  0  0  0  0  0  0  0
   -5.3083   -0.7500    0.0000 N   0  0  0  0  0  0  0  0  0  0  0  0
   -5.3083    0.7500    0.0000 N   0  0  0  0  0  0  0  0  0  0  0  0
   -3.8817    1.2135    0.0000 C   0  0  0  0  0  0  0  0  0  0  0  0
   -3.4182    2.6401    0.0000 N   0  0  0  0  0  0  0  0  0  0  0  0
   -4.4218    3.7548    0.0000 C   0  0  0  0  0  0  0  0  0  0  0  0
   -5.8891    3.4430    0.0000 O   0  0  0  0  0  0  0  0  0  0  0  0
   -3.9583    5.1814    0.0000 C   0  0  0  0  0  0  0  0  0  0  0  0
   -2.4911    5.4933    0.0000 C   0  0  0  0  0  0  0  0  0  0  0  0
   -2.0276    6.9199    0.0000 C   0  0  0  0  0  0  0  0  0  0  0  0
   -3.0313    8.0346    0.0000 C   0  0  0  0  0  0  0  0  0  0  0  0
   -2.5677    9.4612    0.0000 N   0  0  0  0  0  0  0  0  0  0  0  0
   -3.4494   10.6747    0.0000 N   0  0  0  0  0  0  0  0  0  0  0  0
   -2.5677   11.8882    0.0000 N   0  0  0  0  0  0  0  0  0  0  0  0
   -1.1412   11.4247    0.0000 N   0  0  0  0  0  0  0  0  0  0  0  0
   -1.1412    9.9247    0.0000 C   0  0  0  0  0  0  0  0  0  0  0  0
    0.0724    9.0430    0.0000 C   0  0  0  0  0  0  0  0  0  0  0  0
   -0.0844    7.5512    0.0000 C   0  0  0  0  0  0  0  0  0  0  0  0
    1.1291    6.6696    0.0000 C   0  0  0  0  0  0  0  0  0  0  0  0
    2.4994    7.2797    0.0000 C   0  0  0  0  0  0  0  0  0  0  0  0
    3.7129    6.3980    0.0000 C   0  0  0  0  0  0  0  0  0  0  0  0
    2.6562    8.7714    0.0000 N   0  0  0  0  0  0  0  0  0  0  0  0
    1.4427    9.6531    0.0000 C   0  0  0  0  0  0  0  0  0  0  0  0
    1.5995   11.1449    0.0000 O   0  0  0  0  0  0  0  0  0  0  0  0
   -4.4985    7.7227    0.0000 C   0  0  0  0  0  0  0  0  0  0  0  0
   -5.5022    8.8374    0.0000 C   0  0  0  0  0  0  0  0  0  0  0  0
   -5.0387   10.2640    0.0000 C   0  0  0  0  0  0  0  0  0  0  0  0
   -6.0424   11.3787    0.0000 C   0  0  0  0  0  0  0  0  0  0  0  0
   -7.5096   11.0669    0.0000 C   0  0  0  0  0  0  0  0  0  0  0  0
   -8.5133   12.1816    0.0000 C   0  0  0  0  0  0  0  0  0  0  0  0
   -9.9805   11.8697    0.0000 O   0  0  0  0  0  0  0  0  0  0  0  0
   -8.0498   13.6082    0.0000 N   0  0  0  0  0  0  0  0  0  0  0  0
   -9.0534   14.7229    0.0000 O   0  0  0  0  0  0  0  0  0  0  0  0
   -7.9731    9.6403    0.0000 C   0  0  0  0  0  0  0  0  0  0  0  0
   -6.9694    8.5256    0.0000 C   0  0  0  0  0  0  0  0  0  0  0  0
   -4.9620    6.2961    0.0000 C   0  0  0  0  0  0  0  0  0  0  0  0
   -0.7500    1.2990    0.0000 C   0  0  0  0  0  0  0  0  0  0  0  0
    0.7500    1.2990    0.0000 C   0  0  0  0  0  0  0  0  0  0  0  0
  1  2  1  0
  2  3  2  0
  3  4  1  0
  4  5  2  0
  5  6  1  0
  6  7  1  0
  7  8  2  0
  8  9  1  0
  9 10  2  0
 10 11  1  0
 11 12  1  0
 12 13  2  0
 12 14  1  0
 14 15  2  0
 15 16  1  0
 16 17  2  0
 17 18  1  0
 18 19  1  0
 19 20  2  0
 20 21  1  0
 21 22  2  0
 22 23  1  0
 23 24  2  0
 24 25  1  0
 25 26  2  0
 26 27  1  0
 26 28  1  0
 28 29  1  0
 29 30  2  0
 17 31  1  0
 31 32  1  0
 32 33  2  0
 33 34  1  0
 34 35  2  0
 35 36  1  0
 36 37  2  0
 36 38  1  0
 38 39  1  0
 35 40  1  0
 40 41  1  0
 31 42  2  0
  5 43  1  0
 43 44  2  0
 44  2  1  0
 10  6  1  0
 42 14  1  0
 22 18  1  0
 29 23  1  0
 41 32  1  0
M  END
>  <Title>  (431) 
idAAQOgen8

$$$$

     RDKit          2D

  9  9  0  0  0  0  0  0  0  0999 V2000
    3.7500   -1.2990    0.0000 O   0  0  0  0  0  0  0  0  0  0  0  0
    3.0000    0.0000    0.0000 C   0  0  0  0  0  0  0  0  0  0  0  0
    1.5000    0.0000    0.0000 C   0  0  0  0  0  0  0  0  0  0  0  0
    0.7500   -1.2990    0.0000 C   0  0  0  0  0  0  0  0  0  0  0  0
   -0.7500   -1.2990    0.0000 C   0  0  0  0  0  0  0  0  0  0  0  0
   -1.5000    0.0000    0.0000 C   0  0  0  0  0  0  0  0  0  0  0  0
   -0.7500    1.2990    0.0000 C   0  0  0  0  0  0  0  0  0  0  0  0
    0.7500    1.2990    0.0000 C   0  0  0  0  0  0  0  0  0  0  0  0
    1.5000    2.5981    0.0000 O   0  0  0  0  0  0  0  0  0  0  0  0
  1  2  1  0
  2  3  1  0
  3  4  2  0
  4  5  1  0
  5  6  2  0
  6  7  1  0
  7  8  2  0
  8  9  1  0
  8  3  1  0
M  END
>  <Title>  (432) 
idAAQPgen8

$$$$

     RDKit          2D

 40 46  0  0  0  0  0  0  0  0999 V2000
    3.0000    0.0000    0.0000 C   0  0  0  0  0  0  0  0  0  0  0  0
    1.5000    0.0000    0.0000 C   0  0  0  0  0  0  0  0  0  0  0  0
    0.7500   -1.2990    0.0000 C   0  0  0  0  0  0  0  0  0  0  0  0
   -0.7500   -1.2990    0.0000 C   0  0  0  0  0  0  0  0  0  0  0  0
   -1.5000    0.0000    0.0000 C   0  0  0  0  0  0  0  0  0  0  0  0
   -3.0000    0.0000    0.0000 C   0  0  0  0  0  0  0  0  0  0  0  0
   -3.8817   -1.2135    0.0000 N   0  0  0  0  0  0  0  0  0  0  0  0
   -5.3083   -0.7500    0.0000 N   0  0  0  0  0  0  0  0  0  0  0  0
   -5.3083    0.7500    0.0000 N   0  0  0  0  0  0  0  0  0  0  0  0
   -3.8817    1.2135    0.0000 N   0  0  0  0  0  0  0  0  0  0  0  0
   -3.4182    2.6401    0.0000 C   0  0  0  0  0  0  0  0  0  0  0  0
   -1.9509    2.9520    0.0000 C   0  0  0  0  0  0  0  0  0  0  0  0
   -1.4874    4.3786    0.0000 C   0  0  0  0  0  0  0  0  0  0  0  0
   -2.4911    5.4933    0.0000 C   0  0  0  0  0  0  0  0  0  0  0  0
   -3.9583    5.1814    0.0000 C   0  0  0  0  0  0  0  0  0  0  0  0
   -4.4218    3.7548    0.0000 C   0  0  0  0  0  0  0  0  0  0  0  0
   -5.8891    3.4430    0.0000 C   0  0  0  0  0  0  0  0  0  0  0  0
   -6.4992    2.0726    0.0000 C   0  0  0  0  0  0  0  0  0  0  0  0
   -7.9910    2.2294    0.0000 C   0  0  0  0  0  0  0  0  0  0  0  0
   -8.3028    3.6967    0.0000 C   0  0  0  0  0  0  0  0  0  0  0  0
   -7.0038    4.4467    0.0000 N   0  0  0  0  0  0  0  0  0  0  0  0
   -6.8470    5.9384    0.0000 C   0  0  0  0  0  0  0  0  0  0  0  0
   -5.4767    6.5485    0.0000 C   0  0  0  0  0  0  0  0  0  0  0  0
   -5.3199    8.0403    0.0000 C   0  0  0  0  0  0  0  0  0  0  0  0
   -6.5334    8.9220    0.0000 C   0  0  0  0  0  0  0  0  0  0  0  0
   -6.3766   10.4138    0.0000 C   0  0  0  0  0  0  0  0  0  0  0  0
   -7.4913   11.4175    0.0000 N   0  0  0  0  0  0  0  0  0  0  0  0
   -6.8812   12.7878    0.0000 N   0  0  0  0  0  0  0  0  0  0  0  0
   -5.3894   12.6310    0.0000 N   0  0  0  0  0  0  0  0  0  0  0  0
   -5.0776   11.1638    0.0000 N   0  0  0  0  0  0  0  0  0  0  0  0
   -3.7073   10.5537    0.0000 C   0  0  0  0  0  0  0  0  0  0  0  0
   -3.5505    9.0619    0.0000 C   0  0  0  0  0  0  0  0  0  0  0  0
   -2.1801    8.4518    0.0000 C   0  0  0  0  0  0  0  0  0  0  0  0
   -0.9666    9.3335    0.0000 C   0  0  0  0  0  0  0  0  0  0  0  0
   -1.1234   10.8253    0.0000 C   0  0  0  0  0  0  0  0  0  0  0  0
   -2.4937   11.4354    0.0000 C   0  0  0  0  0  0  0  0  0  0  0  0
   -7.9037    8.3119    0.0000 C   0  0  0  0  0  0  0  0  0  0  0  0
   -8.0605    6.8201    0.0000 C   0  0  0  0  0  0  0  0  0  0  0  0
   -0.7500    1.2990    0.0000 C   0  0  0  0  0  0  0  0  0  0  0  0
    0.7500    1.2990    0.0000 C   0  0  0  0  0  0  0  0  0  0  0  0
  1  2  1  0
  2  3  2  0
  3  4  1  0
  4  5  2  0
  5  6  1  0
  6  7  2  0
  7  8  1  0
  8  9  2  0
  9 10  1  0
 10 11  1  0
 11 12  1  0
 12 13  1  0
 13 14  1  0
 14 15  1  0
 15 16  1  0
 16 17  1  0
 17 18  2  0
 18 19  1  0
 19 20  2  0
 20 21  1  0
 21 22  1  0
 22 23  2  0
 23 24  1  0
 24 25  2  0
 25 26  1  0
 26 27  2  0
 27 28  1  0
 28 29  2  0
 29 30  1  0
 30 31  1  0
 31 32  2  0
 32 33  1  0
 33 34  2  0
 34 35  1  0
 35 36  2  0
 25 37  1  0
 37 38  2  0
  5 39  1  0
 39 40  2  0
 40  2  1  0
 10  6  1  0
 16 11  1  0
 21 17  1  0
 38 22  1  0
 30 26  1  0
 36 31  1  0
M  END
>  <Title>  (433) 
idAAQQgen8

$$$$

     RDKit          2D

 38 43  0  0  0  0  0  0  0  0999 V2000
   -2.5242   -4.8694    0.0000 C   0  0  0  0  0  0  0  0  0  0  0  0
   -1.3515   -3.9342    0.0000 C   0  0  0  0  0  0  0  0  0  0  0  0
   -0.0000   -4.5850    0.0000 C   0  0  0  0  0  0  0  0  0  0  0  0
    1.3515   -3.9342    0.0000 C   0  0  0  0  0  0  0  0  0  0  0  0
    1.6852   -2.4718    0.0000 C   0  0  0  0  0  0  0  0  0  0  0  0
    3.1476   -2.1380    0.0000 C   0  0  0  0  0  0  0  0  0  0  0  0
    3.5898   -0.7046    0.0000 O   0  0  0  0  0  0  0  0  0  0  0  0
    4.1679   -3.2376    0.0000 N   0  0  0  0  0  0  0  0  0  0  0  0
    5.6303   -2.9038    0.0000 C   0  0  0  0  0  0  0  0  0  0  0  0
    6.2198   -1.5245    0.0000 N   0  0  0  0  0  0  0  0  0  0  0  0
    7.7138   -1.6590    0.0000 N   0  0  0  0  0  0  0  0  0  0  0  0
    8.0476   -3.1214    0.0000 N   0  0  0  0  0  0  0  0  0  0  0  0
    6.7599   -3.8907    0.0000 N   0  0  0  0  0  0  0  0  0  0  0  0
    6.6254   -5.3847    0.0000 C   0  0  0  0  0  0  0  0  0  0  0  0
    7.7550   -6.3716    0.0000 C   0  0  0  0  0  0  0  0  0  0  0  0
    7.1655   -7.7509    0.0000 C   0  0  0  0  0  0  0  0  0  0  0  0
    5.6715   -7.6164    0.0000 C   0  0  0  0  0  0  0  0  0  0  0  0
    4.6846   -8.7460    0.0000 C   0  0  0  0  0  0  0  0  0  0  0  0
    3.2129   -8.4561    0.0000 C   0  0  0  0  0  0  0  0  0  0  0  0
    2.5824   -7.0951    0.0000 N   0  0  0  0  0  0  0  0  0  0  0  0
    1.0931   -7.2742    0.0000 N   0  0  0  0  0  0  0  0  0  0  0  0
    0.8032   -8.7459    0.0000 N   0  0  0  0  0  0  0  0  0  0  0  0
    2.1133   -9.4764    0.0000 N   0  0  0  0  0  0  0  0  0  0  0  0
    2.2924  -10.9657    0.0000 C   0  0  0  0  0  0  0  0  0  0  0  0
    1.0922  -11.8654    0.0000 C   0  0  0  0  0  0  0  0  0  0  0  0
    1.2713  -13.3547    0.0000 C   0  0  0  0  0  0  0  0  0  0  0  0
    2.6506  -13.9442    0.0000 C   0  0  0  0  0  0  0  0  0  0  0  0
    3.8508  -13.0445    0.0000 C   0  0  0  0  0  0  0  0  0  0  0  0
    3.6717  -11.5552    0.0000 C   0  0  0  0  0  0  0  0  0  0  0  0
    5.3378   -6.1540    0.0000 C   0  0  0  0  0  0  0  0  0  0  0  0
    3.9585   -5.5645    0.0000 O   0  0  0  0  0  0  0  0  0  0  0  0
    0.7500   -1.2990    0.0000 C   0  0  0  0  0  0  0  0  0  0  0  0
    1.5000    0.0000    0.0000 C   0  0  0  0  0  0  0  0  0  0  0  0
    0.7500    1.2990    0.0000 C   0  0  0  0  0  0  0  0  0  0  0  0
   -0.7500    1.2990    0.0000 C   0  0  0  0  0  0  0  0  0  0  0  0
   -1.5000    0.0000    0.0000 C   0  0  0  0  0  0  0  0  0  0  0  0
   -0.7500   -1.2990    0.0000 C   0  0  0  0  0  0  0  0  0  0  0  0
   -1.6852   -2.4718    0.0000 N   0  0  0  0  0  0  0  0  0  0  0  0
  1  2  1  0
  2  3  2  0
  3  4  1  0
  4  5  2  0
  5  6  1  0
  6  7  2  0
  6  8  1  0
  8  9  1  0
  9 10  2  0
 10 11  1  0
 11 12  2  0
 12 13  1  0
 13 14  1  0
 14 15  2  0
 15 16  1  0
 16 17  2  0
 17 18  1  0
 18 19  1  0
 19 20  2  0
 20 21  1  0
 21 22  2  0
 22 23  1  0
 23 24  1  0
 24 25  2  0
 25 26  1  0
 26 27  2  0
 27 28  1  0
 28 29  2  0
 17 30  1  0
 30 31  2  0
  5 32  1  0
 32 33  2  0
 33 34  1  0
 34 35  2  0
 35 36  1  0
 36 37  2  0
 37 38  1  0
 38  2  1  0
 13  9  1  0
 30 14  1  0
 37 32  1  0
 23 19  1  0
 29 24  1  0
M  END
>  <Title>  (434) 
idAAQRgen8

$$$$

     RDKit          2D

 33 37  0  0  0  0  0  0  0  0999 V2000
    3.0000    0.0000    0.0000 C   0  0  0  0  0  0  0  0  0  0  0  0
    1.5000    0.0000    0.0000 C   0  0  0  0  0  0  0  0  0  0  0  0
    0.7500   -1.2990    0.0000 C   0  0  0  0  0  0  0  0  0  0  0  0
   -0.7500   -1.2990    0.0000 C   0  0  0  0  0  0  0  0  0  0  0  0
   -1.5000    0.0000    0.0000 C   0  0  0  0  0  0  0  0  0  0  0  0
   -3.0000    0.0000    0.0000 C   0  0  0  0  0  0  0  0  0  0  0  0
   -3.8817   -1.2135    0.0000 N   0  0  0  0  0  0  0  0  0  0  0  0
   -5.3083   -0.7500    0.0000 N   0  0  0  0  0  0  0  0  0  0  0  0
   -5.3083    0.7500    0.0000 N   0  0  0  0  0  0  0  0  0  0  0  0
   -3.8817    1.2135    0.0000 N   0  0  0  0  0  0  0  0  0  0  0  0
   -3.4182    2.6401    0.0000 C   0  0  0  0  0  0  0  0  0  0  0  0
   -1.9509    2.9520    0.0000 C   0  0  0  0  0  0  0  0  0  0  0  0
   -1.4874    4.3786    0.0000 C   0  0  0  0  0  0  0  0  0  0  0  0
   -2.4911    5.4933    0.0000 C   0  0  0  0  0  0  0  0  0  0  0  0
   -3.9583    5.1814    0.0000 C   0  0  0  0  0  0  0  0  0  0  0  0
   -4.4218    3.7548    0.0000 C   0  0  0  0  0  0  0  0  0  0  0  0
   -5.8891    3.4430    0.0000 C   0  0  0  0  0  0  0  0  0  0  0  0
   -6.4992    2.0726    0.0000 C   0  0  0  0  0  0  0  0  0  0  0  0
   -7.9910    2.2294    0.0000 N   0  0  0  0  0  0  0  0  0  0  0  0
   -8.3028    3.6967    0.0000 N   0  0  0  0  0  0  0  0  0  0  0  0
   -7.0038    4.4467    0.0000 N   0  0  0  0  0  0  0  0  0  0  0  0
   -6.8470    5.9384    0.0000 C   0  0  0  0  0  0  0  0  0  0  0  0
   -5.4767    6.5485    0.0000 C   0  0  0  0  0  0  0  0  0  0  0  0
   -5.3199    8.0403    0.0000 C   0  0  0  0  0  0  0  0  0  0  0  0
   -6.5334    8.9220    0.0000 C   0  0  0  0  0  0  0  0  0  0  0  0
   -6.3766   10.4138    0.0000 C   0  0  0  0  0  0  0  0  0  0  0  0
   -7.5901   11.2955    0.0000 O   0  0  0  0  0  0  0  0  0  0  0  0
   -5.0063   11.0239    0.0000 N   0  0  0  0  0  0  0  0  0  0  0  0
   -4.8495   12.5157    0.0000 O   0  0  0  0  0  0  0  0  0  0  0  0
   -7.9037    8.3119    0.0000 C   0  0  0  0  0  0  0  0  0  0  0  0
   -8.0605    6.8201    0.0000 C   0  0  0  0  0  0  0  0  0  0  0  0
   -0.7500    1.2990    0.0000 N   0  0  0  0  0  0  0  0  0  0  0  0
    0.7500    1.2990    0.0000 N   0  0  0  0  0  0  0  0  0  0  0  0
  1  2  1  0
  2  3  2  0
  3  4  1  0
  4  5  2  0
  5  6  1  0
  6  7  2  0
  7  8  1  0
  8  9  2  0
  9 10  1  0
 10 11  1  0
 11 12  1  0
 12 13  1  0
 13 14  1  0
 14 15  1  0
 15 16  1  0
 16 17  1  0
 17 18  2  0
 18 19  1  0
 19 20  2  0
 20 21  1  0
 21 22  1  0
 22 23  2  0
 23 24  1  0
 24 25  2  0
 25 26  1  0
 26 27  2  0
 26 28  1  0
 28 29  1  0
 25 30  1  0
 30 31  1  0
  5 32  1  0
 32 33  2  0
 33  2  1  0
 10  6  1  0
 16 11  1  0
 21 17  1  0
 31 22  1  0
M  END
>  <Title>  (435) 
idAAQSgen8

$$$$

     RDKit          2D

 30 30  0  0  0  0  0  0  0  0999 V2000
    8.9486   -1.2990    0.0000 C   0  0  0  0  0  0  0  0  0  0  0  0
    8.1986    0.0000    0.0000 O   0  0  0  0  0  0  0  0  0  0  0  0
    6.6986    0.0000    0.0000 C   0  0  0  0  0  0  0  0  0  0  0  0
    6.5306   -1.4906    0.0000 C   0  0  0  0  0  0  0  0  0  0  0  0
    6.0352   -2.9064    0.0000 C   0  0  0  0  0  0  0  0  0  0  0  0
    5.2371   -4.1765    0.0000 C   0  0  0  0  0  0  0  0  0  0  0  0
    4.1765   -5.2371    0.0000 C   0  0  0  0  0  0  0  0  0  0  0  0
    2.9064   -6.0352    0.0000 C   0  0  0  0  0  0  0  0  0  0  0  0
    1.4906   -6.5306    0.0000 C   0  0  0  0  0  0  0  0  0  0  0  0
   -0.0000   -6.6986    0.0000 C   0  0  0  0  0  0  0  0  0  0  0  0
   -1.4906   -6.5306    0.0000 C   0  0  0  0  0  0  0  0  0  0  0  0
   -2.9064   -6.0352    0.0000 C   0  0  0  0  0  0  0  0  0  0  0  0
   -4.1765   -5.2371    0.0000 C   0  0  0  0  0  0  0  0  0  0  0  0
   -5.2371   -4.1765    0.0000 C   0  0  0  0  0  0  0  0  0  0  0  0
   -6.0352   -2.9064    0.0000 C   0  0  0  0  0  0  0  0  0  0  0  0
   -6.5306   -1.4906    0.0000 C   0  0  0  0  0  0  0  0  0  0  0  0
   -6.6986    0.0000    0.0000 C   0  0  0  0  0  0  0  0  0  0  0  0
   -6.5306    1.4906    0.0000 C   0  0  0  0  0  0  0  0  0  0  0  0
   -6.0352    2.9064    0.0000 C   0  0  0  0  0  0  0  0  0  0  0  0
   -5.2371    4.1765    0.0000 C   0  0  0  0  0  0  0  0  0  0  0  0
   -4.1765    5.2371    0.0000 C   0  0  0  0  0  0  0  0  0  0  0  0
   -2.9064    6.0352    0.0000 C   0  0  0  0  0  0  0  0  0  0  0  0
   -1.4906    6.5306    0.0000 C   0  0  0  0  0  0  0  0  0  0  0  0
    0.0000    6.6986    0.0000 C   0  0  0  0  0  0  0  0  0  0  0  0
    1.4906    6.5306    0.0000 C   0  0  0  0  0  0  0  0  0  0  0  0
    2.9064    6.0352    0.0000 C   0  0  0  0  0  0  0  0  0  0  0  0
    4.1765    5.2371    0.0000 C   0  0  0  0  0  0  0  0  0  0  0  0
    5.2371    4.1765    0.0000 C   0  0  0  0  0  0  0  0  0  0  0  0
    6.0352    2.9064    0.0000 C   0  0  0  0  0  0  0  0  0  0  0  0
    6.5306    1.4906    0.0000 C   0  0  0  0  0  0  0  0  0  0  0  0
  1  2  1  0
  2  3  1  0
  3  4  2  0
  4  5  1  0
  5  6  2  0
  6  7  1  0
  7  8  2  0
  8  9  1  0
  9 10  2  0
 10 11  1  0
 11 12  2  0
 12 13  1  0
 13 14  2  0
 14 15  1  0
 15 16  2  0
 16 17  1  0
 17 18  2  0
 18 19  1  0
 19 20  2  0
 20 21  1  0
 21 22  2  0
 22 23  1  0
 23 24  2  0
 24 25  1  0
 25 26  2  0
 26 27  1  0
 27 28  2  0
 28 29  1  0
 29 30  2  0
 30  3  1  0
M  END
>  <Title>  (436) 
idAAQTgen8

$$$$

     RDKit          2D

 40 45  0  0  0  0  0  0  0  0999 V2000
  -11.5327    3.6666    0.0000 C   0  0  0  0  0  0  0  0  0  0  0  0
  -10.1624    4.2767    0.0000 O   0  0  0  0  0  0  0  0  0  0  0  0
   -8.9488    3.3950    0.0000 C   0  0  0  0  0  0  0  0  0  0  0  0
   -9.1056    1.9033    0.0000 C   0  0  0  0  0  0  0  0  0  0  0  0
   -7.8921    1.0216    0.0000 C   0  0  0  0  0  0  0  0  0  0  0  0
   -6.5218    1.6317    0.0000 C   0  0  0  0  0  0  0  0  0  0  0  0
   -5.3083    0.7500    0.0000 C   0  0  0  0  0  0  0  0  0  0  0  0
   -5.3083   -0.7500    0.0000 N   0  0  0  0  0  0  0  0  0  0  0  0
   -3.8817   -1.2135    0.0000 N   0  0  0  0  0  0  0  0  0  0  0  0
   -3.0000    0.0000    0.0000 N   0  0  0  0  0  0  0  0  0  0  0  0
   -3.8817    1.2135    0.0000 N   0  0  0  0  0  0  0  0  0  0  0  0
   -3.4182    2.6401    0.0000 C   0  0  0  0  0  0  0  0  0  0  0  0
   -4.2998    3.8536    0.0000 N   0  0  0  0  0  0  0  0  0  0  0  0
   -3.4182    5.0672    0.0000 N   0  0  0  0  0  0  0  0  0  0  0  0
   -1.9916    4.6036    0.0000 N   0  0  0  0  0  0  0  0  0  0  0  0
   -1.9916    3.1036    0.0000 N   0  0  0  0  0  0  0  0  0  0  0  0
   -0.7780    2.2220    0.0000 C   0  0  0  0  0  0  0  0  0  0  0  0
   -0.5434    0.7404    0.0000 N   0  0  0  0  0  0  0  0  0  0  0  0
    0.9381    0.9751    0.0000 C   0  0  0  0  0  0  0  0  0  0  0  0
    2.1517    0.0934    0.0000 C   0  0  0  0  0  0  0  0  0  0  0  0
    1.9949   -1.3984    0.0000 O   0  0  0  0  0  0  0  0  0  0  0  0
    3.5220    0.7035    0.0000 N   0  0  0  0  0  0  0  0  0  0  0  0
    4.7355   -0.1782    0.0000 C   0  0  0  0  0  0  0  0  0  0  0  0
    4.5787   -1.6700    0.0000 O   0  0  0  0  0  0  0  0  0  0  0  0
    6.1058    0.4319    0.0000 C   0  0  0  0  0  0  0  0  0  0  0  0
    6.4177    1.8992    0.0000 N   0  0  0  0  0  0  0  0  0  0  0  0
    7.9095    2.0559    0.0000 N   0  0  0  0  0  0  0  0  0  0  0  0
    8.5196    0.6856    0.0000 N   0  0  0  0  0  0  0  0  0  0  0  0
    7.4049   -0.3181    0.0000 N   0  0  0  0  0  0  0  0  0  0  0  0
    7.5617   -1.8099    0.0000 C   0  0  0  0  0  0  0  0  0  0  0  0
    6.3481   -2.6915    0.0000 C   0  0  0  0  0  0  0  0  0  0  0  0
    6.5049   -4.1833    0.0000 C   0  0  0  0  0  0  0  0  0  0  0  0
    7.8752   -4.7934    0.0000 C   0  0  0  0  0  0  0  0  0  0  0  0
    9.0888   -3.9117    0.0000 C   0  0  0  0  0  0  0  0  0  0  0  0
    8.9320   -2.4200    0.0000 C   0  0  0  0  0  0  0  0  0  0  0  0
    0.7035    2.4566    0.0000 C   0  0  0  0  0  0  0  0  0  0  0  0
    1.5852    3.6701    0.0000 O   0  0  0  0  0  0  0  0  0  0  0  0
   -6.3650    3.1235    0.0000 N   0  0  0  0  0  0  0  0  0  0  0  0
   -7.5785    4.0051    0.0000 C   0  0  0  0  0  0  0  0  0  0  0  0
   -7.4217    5.4969    0.0000 O   0  0  0  0  0  0  0  0  0  0  0  0
  1  2  1  0
  2  3  1  0
  3  4  2  0
  4  5  1  0
  5  6  2  0
  6  7  1  0
  7  8  2  0
  8  9  1  0
  9 10  2  0
 10 11  1  0
 11 12  1  0
 12 13  2  0
 13 14  1  0
 14 15  2  0
 15 16  1  0
 16 17  1  0
 17 18  1  0
 18 19  1  0
 19 20  1  0
 20 21  2  0
 20 22  1  0
 22 23  1  0
 23 24  2  0
 23 25  1  0
 25 26  2  0
 26 27  1  0
 27 28  2  0
 28 29  1  0
 29 30  1  0
 30 31  2  0
 31 32  1  0
 32 33  2  0
 33 34  1  0
 34 35  2  0
 19 36  1  0
 36 37  2  0
  6 38  1  0
 38 39  1  0
 39 40  2  0
 39  3  1  0
 11  7  1  0
 16 12  1  0
 36 17  1  0
 29 25  1  0
 35 30  1  0
M  END
>  <Title>  (437) 
idAAQUgen8

$$$$

     RDKit          2D

 30 31  0  0  0  0  0  0  0  0999 V2000
   -4.2862    2.4458    0.0000 C   0  0  0  0  0  0  0  0  0  0  0  0
   -2.9872    1.6958    0.0000 O   0  0  0  0  0  0  0  0  0  0  0  0
   -2.9872    0.1958    0.0000 C   0  0  0  0  0  0  0  0  0  0  0  0
   -4.4743    0.0000    0.0000 C   0  0  0  0  0  0  0  0  0  0  0  0
   -5.8602   -0.5740    0.0000 C   0  0  0  0  0  0  0  0  0  0  0  0
   -7.0502   -1.4872    0.0000 C   0  0  0  0  0  0  0  0  0  0  0  0
   -7.9633   -2.6772    0.0000 C   0  0  0  0  0  0  0  0  0  0  0  0
   -8.5374   -4.0630    0.0000 C   0  0  0  0  0  0  0  0  0  0  0  0
   -8.7331   -5.5502    0.0000 C   0  0  0  0  0  0  0  0  0  0  0  0
   -8.5374   -7.0374    0.0000 C   0  0  0  0  0  0  0  0  0  0  0  0
   -7.9633   -8.4232    0.0000 C   0  0  0  0  0  0  0  0  0  0  0  0
   -7.0502   -9.6132    0.0000 C   0  0  0  0  0  0  0  0  0  0  0  0
   -5.8602  -10.5263    0.0000 C   0  0  0  0  0  0  0  0  0  0  0  0
   -4.4743  -11.1004    0.0000 C   0  0  0  0  0  0  0  0  0  0  0  0
   -2.9872  -11.2962    0.0000 C   0  0  0  0  0  0  0  0  0  0  0  0
   -1.5000  -11.1004    0.0000 C   0  0  0  0  0  0  0  0  0  0  0  0
   -0.1142  -10.5263    0.0000 C   0  0  0  0  0  0  0  0  0  0  0  0
    1.0758   -9.6132    0.0000 C   0  0  0  0  0  0  0  0  0  0  0  0
    1.9890   -8.4232    0.0000 C   0  0  0  0  0  0  0  0  0  0  0  0
    2.5630   -7.0374    0.0000 C   0  0  0  0  0  0  0  0  0  0  0  0
    2.7588   -5.5502    0.0000 C   0  0  0  0  0  0  0  0  0  0  0  0
    2.5630   -4.0630    0.0000 C   0  0  0  0  0  0  0  0  0  0  0  0
    1.9890   -2.6772    0.0000 C   0  0  0  0  0  0  0  0  0  0  0  0
    0.7500   -1.2990    0.0000 C   0  0  0  0  0  0  0  0  0  0  0  0
    1.5000    0.0000    0.0000 C   0  0  0  0  0  0  0  0  0  0  0  0
    0.7500    1.2990    0.0000 C   0  0  0  0  0  0  0  0  0  0  0  0
   -0.7500    1.2990    0.0000 C   0  0  0  0  0  0  0  0  0  0  0  0
   -1.5000    0.0000    0.0000 C   0  0  0  0  0  0  0  0  0  0  0  0
   -0.7500   -1.2990    0.0000 C   0  0  0  0  0  0  0  0  0  0  0  0
   -1.5000   -2.5981    0.0000 O   0  0  0  0  0  0  0  0  0  0  0  0
  1  2  1  0
  2  3  1  0
  3  4  2  0
  4  5  1  0
  5  6  2  0
  6  7  1  0
  7  8  2  0
  8  9  1  0
  9 10  2  0
 10 11  1  0
 11 12  2  0
 12 13  1  0
 13 14  2  0
 14 15  1  0
 15 16  2  0
 16 17  1  0
 17 18  2  0
 18 19  1  0
 19 20  2  0
 20 21  1  0
 21 22  2  0
 22 23  1  0
 23 24  2  0
 24 25  1  0
 25 26  2  0
 26 27  1  0
 27 28  2  0
 28 29  1  0
 29 30  2  0
 28  3  1  0
 29 24  1  0
M  END
>  <Title>  (438) 
idAAQVgen8

$$$$

     RDKit          2D

 22 22  0  0  0  0  0  0  0  0999 V2000
    6.2943    0.0000    0.0000 C   0  0  0  0  0  0  0  0  0  0  0  0
    4.7943    0.0000    0.0000 C   0  0  0  0  0  0  0  0  0  0  0  0
    4.5597   -1.4815    0.0000 C   0  0  0  0  0  0  0  0  0  0  0  0
    3.8787   -2.8180    0.0000 C   0  0  0  0  0  0  0  0  0  0  0  0
    2.8180   -3.8787    0.0000 C   0  0  0  0  0  0  0  0  0  0  0  0
    1.4815   -4.5597    0.0000 C   0  0  0  0  0  0  0  0  0  0  0  0
   -0.0000   -4.7943    0.0000 C   0  0  0  0  0  0  0  0  0  0  0  0
   -1.4815   -4.5597    0.0000 C   0  0  0  0  0  0  0  0  0  0  0  0
   -2.8180   -3.8787    0.0000 C   0  0  0  0  0  0  0  0  0  0  0  0
   -3.8787   -2.8180    0.0000 C   0  0  0  0  0  0  0  0  0  0  0  0
   -4.5597   -1.4815    0.0000 C   0  0  0  0  0  0  0  0  0  0  0  0
   -4.7943    0.0000    0.0000 C   0  0  0  0  0  0  0  0  0  0  0  0
   -4.5597    1.4815    0.0000 C   0  0  0  0  0  0  0  0  0  0  0  0
   -3.8787    2.8180    0.0000 C   0  0  0  0  0  0  0  0  0  0  0  0
   -2.8180    3.8787    0.0000 C   0  0  0  0  0  0  0  0  0  0  0  0
   -1.4815    4.5597    0.0000 C   0  0  0  0  0  0  0  0  0  0  0  0
    0.0000    4.7943    0.0000 C   0  0  0  0  0  0  0  0  0  0  0  0
    1.4815    4.5597    0.0000 C   0  0  0  0  0  0  0  0  0  0  0  0
    2.8180    3.8787    0.0000 C   0  0  0  0  0  0  0  0  0  0  0  0
    3.8787    2.8180    0.0000 C   0  0  0  0  0  0  0  0  0  0  0  0
    4.5597    1.4815    0.0000 C   0  0  0  0  0  0  0  0  0  0  0  0
    5.9863    1.9451    0.0000 O   0  0  0  0  0  0  0  0  0  0  0  0
  1  2  1  0
  2  3  2  0
  3  4  1  0
  4  5  2  0
  5  6  1  0
  6  7  2  0
  7  8  1  0
  8  9  2  0
  9 10  1  0
 10 11  2  0
 11 12  1  0
 12 13  2  0
 13 14  1  0
 14 15  2  0
 15 16  1  0
 16 17  2  0
 17 18  1  0
 18 19  2  0
 19 20  1  0
 20 21  2  0
 21 22  1  0
 21  2  1  0
M  END
>  <Title>  (439) 
idAAQWgen8

$$$$

     RDKit          2D

 34 39  0  0  0  0  0  0  0  0999 V2000
  -10.1624    4.2767    0.0000 C   0  0  0  0  0  0  0  0  0  0  0  0
   -8.9488    3.3950    0.0000 C   0  0  0  0  0  0  0  0  0  0  0  0
   -7.5785    4.0051    0.0000 C   0  0  0  0  0  0  0  0  0  0  0  0
   -6.3650    3.1235    0.0000 C   0  0  0  0  0  0  0  0  0  0  0  0
   -6.5218    1.6317    0.0000 C   0  0  0  0  0  0  0  0  0  0  0  0
   -5.3083    0.7500    0.0000 C   0  0  0  0  0  0  0  0  0  0  0  0
   -5.3083   -0.7500    0.0000 N   0  0  0  0  0  0  0  0  0  0  0  0
   -3.8817   -1.2135    0.0000 N   0  0  0  0  0  0  0  0  0  0  0  0
   -3.0000    0.0000    0.0000 N   0  0  0  0  0  0  0  0  0  0  0  0
   -3.8817    1.2135    0.0000 N   0  0  0  0  0  0  0  0  0  0  0  0
   -3.4182    2.6401    0.0000 C   0  0  0  0  0  0  0  0  0  0  0  0
   -4.2998    3.8536    0.0000 C   0  0  0  0  0  0  0  0  0  0  0  0
   -3.4182    5.0672    0.0000 N   0  0  0  0  0  0  0  0  0  0  0  0
   -1.9916    4.6036    0.0000 N   0  0  0  0  0  0  0  0  0  0  0  0
   -1.9916    3.1036    0.0000 N   0  0  0  0  0  0  0  0  0  0  0  0
   -0.7780    2.2220    0.0000 C   0  0  0  0  0  0  0  0  0  0  0  0
   -0.7780    0.7220    0.0000 C   0  0  0  0  0  0  0  0  0  0  0  0
    0.6485    0.2584    0.0000 C   0  0  0  0  0  0  0  0  0  0  0  0
    1.5302    1.4720    0.0000 C   0  0  0  0  0  0  0  0  0  0  0  0
    3.0302    1.4720    0.0000 C   0  0  0  0  0  0  0  0  0  0  0  0
    3.9119    0.2584    0.0000 N   0  0  0  0  0  0  0  0  0  0  0  0
    5.3385    0.7220    0.0000 N   0  0  0  0  0  0  0  0  0  0  0  0
    5.3385    2.2220    0.0000 N   0  0  0  0  0  0  0  0  0  0  0  0
    3.9119    2.6855    0.0000 N   0  0  0  0  0  0  0  0  0  0  0  0
    3.4484    4.1121    0.0000 C   0  0  0  0  0  0  0  0  0  0  0  0
    1.9812    4.4239    0.0000 C   0  0  0  0  0  0  0  0  0  0  0  0
    1.5176    5.8505    0.0000 C   0  0  0  0  0  0  0  0  0  0  0  0
    2.5213    6.9652    0.0000 C   0  0  0  0  0  0  0  0  0  0  0  0
    3.9885    6.6534    0.0000 C   0  0  0  0  0  0  0  0  0  0  0  0
    4.4521    5.2268    0.0000 C   0  0  0  0  0  0  0  0  0  0  0  0
    0.6485    2.6855    0.0000 C   0  0  0  0  0  0  0  0  0  0  0  0
    1.1121    4.1121    0.0000 O   0  0  0  0  0  0  0  0  0  0  0  0
   -7.8921    1.0216    0.0000 C   0  0  0  0  0  0  0  0  0  0  0  0
   -9.1056    1.9033    0.0000 N   0  0  0  0  0  0  0  0  0  0  0  0
  1  2  1  0
  2  3  2  0
  3  4  1  0
  4  5  2  0
  5  6  1  0
  6  7  2  0
  7  8  1  0
  8  9  2  0
  9 10  1  0
 10 11  1  0
 11 12  2  0
 12 13  1  0
 13 14  2  0
 14 15  1  0
 15 16  1  0
 16 17  2  0
 17 18  1  0
 18 19  2  0
 19 20  1  0
 20 21  2  0
 21 22  1  0
 22 23  2  0
 23 24  1  0
 24 25  1  0
 25 26  2  0
 26 27  1  0
 27 28  2  0
 28 29  1  0
 29 30  2  0
 19 31  1  0
 31 32  2  0
  5 33  1  0
 33 34  1  0
 34  2  1  0
 10  6  1  0
 15 11  1  0
 31 16  1  0
 24 20  1  0
 30 25  1  0
M  END
>  <Title>  (440) 
idAAQXgen8

$$$$

     RDKit          2D

 13 13  0  0  0  0  0  0  0  0999 V2000
    3.9271    0.0000    0.0000 C   0  0  0  0  0  0  0  0  0  0  0  0
    2.4271    0.0000    0.0000 C   0  0  0  0  0  0  0  0  0  0  0  0
    1.9635   -1.4266    0.0000 C   0  0  0  0  0  0  0  0  0  0  0  0
    0.7500   -2.3083    0.0000 C   0  0  0  0  0  0  0  0  0  0  0  0
   -0.7500   -2.3083    0.0000 C   0  0  0  0  0  0  0  0  0  0  0  0
   -1.9635   -1.4266    0.0000 C   0  0  0  0  0  0  0  0  0  0  0  0
   -2.4271    0.0000    0.0000 C   0  0  0  0  0  0  0  0  0  0  0  0
   -3.9271    0.0000    0.0000 C   0  0  0  0  0  0  0  0  0  0  0  0
   -1.9635    1.4266    0.0000 C   0  0  0  0  0  0  0  0  0  0  0  0
   -3.1771    2.3083    0.0000 O   0  0  0  0  0  0  0  0  0  0  0  0
   -0.7500    2.3083    0.0000 C   0  0  0  0  0  0  0  0  0  0  0  0
    0.7500    2.3083    0.0000 C   0  0  0  0  0  0  0  0  0  0  0  0
    1.9635    1.4266    0.0000 C   0  0  0  0  0  0  0  0  0  0  0  0
  1  2  1  0
  2  3  2  0
  3  4  1  0
  4  5  2  0
  5  6  1  0
  6  7  2  0
  7  8  1  0
  7  9  1  0
  9 10  1  0
  9 11  2  0
 11 12  1  0
 12 13  2  0
 13  2  1  0
M  END
>  <Title>  (441) 
idAAQYgen8

$$$$

     RDKit          2D

 12 12  0  0  0  0  0  0  0  0999 V2000
    4.1621    0.0000    0.0000 C   0  0  0  0  0  0  0  0  0  0  0  0
    2.6621    0.0000    0.0000 N   0  0  0  0  0  0  0  0  0  0  0  0
    2.2395    1.4392    0.0000 C   0  0  0  0  0  0  0  0  0  0  0  0
    1.1059    2.4215    0.0000 C   0  0  0  0  0  0  0  0  0  0  0  0
   -0.3789    2.6350    0.0000 C   0  0  0  0  0  0  0  0  0  0  0  0
   -1.7433    2.0119    0.0000 C   0  0  0  0  0  0  0  0  0  0  0  0
   -2.5543    0.7500    0.0000 N   0  0  0  0  0  0  0  0  0  0  0  0
   -2.5543   -0.7500    0.0000 C   0  0  0  0  0  0  0  0  0  0  0  0
   -1.7433   -2.0119    0.0000 C   0  0  0  0  0  0  0  0  0  0  0  0
   -0.3789   -2.6350    0.0000 N   0  0  0  0  0  0  0  0  0  0  0  0
    1.1059   -2.4215    0.0000 C   0  0  0  0  0  0  0  0  0  0  0  0
    2.2395   -1.4392    0.0000 C   0  0  0  0  0  0  0  0  0  0  0  0
  1  2  1  0
  2  3  1  0
  3  4  1  0
  4  5  1  0
  5  6  1  0
  6  7  1  0
  7  8  1  0
  8  9  1  0
  9 10  1  0
 10 11  1  0
 11 12  1  0
 12  2  1  0
M  END
>  <Title>  (442) 
idAAQZgen8

$$$$

     RDKit          2D

 21 21  0  0  0  0  0  0  0  0999 V2000
    6.5691   -1.2990    0.0000 C   0  0  0  0  0  0  0  0  0  0  0  0
    5.8191    0.0000    0.0000 O   0  0  0  0  0  0  0  0  0  0  0  0
    4.3191    0.0000    0.0000 C   0  0  0  0  0  0  0  0  0  0  0  0
    4.0586   -1.4772    0.0000 C   0  0  0  0  0  0  0  0  0  0  0  0
    3.3086   -2.7762    0.0000 C   0  0  0  0  0  0  0  0  0  0  0  0
    2.1595   -3.7404    0.0000 C   0  0  0  0  0  0  0  0  0  0  0  0
    0.7500   -4.2535    0.0000 C   0  0  0  0  0  0  0  0  0  0  0  0
   -0.7500   -4.2535    0.0000 C   0  0  0  0  0  0  0  0  0  0  0  0
   -2.1595   -3.7404    0.0000 C   0  0  0  0  0  0  0  0  0  0  0  0
   -3.3086   -2.7762    0.0000 C   0  0  0  0  0  0  0  0  0  0  0  0
   -4.0586   -1.4772    0.0000 C   0  0  0  0  0  0  0  0  0  0  0  0
   -4.3191    0.0000    0.0000 C   0  0  0  0  0  0  0  0  0  0  0  0
   -4.0586    1.4772    0.0000 C   0  0  0  0  0  0  0  0  0  0  0  0
   -3.3086    2.7762    0.0000 C   0  0  0  0  0  0  0  0  0  0  0  0
   -2.1595    3.7404    0.0000 C   0  0  0  0  0  0  0  0  0  0  0  0
   -0.7500    4.2535    0.0000 C   0  0  0  0  0  0  0  0  0  0  0  0
    0.7500    4.2535    0.0000 C   0  0  0  0  0  0  0  0  0  0  0  0
    2.1595    3.7404    0.0000 C   0  0  0  0  0  0  0  0  0  0  0  0
    3.3086    2.7762    0.0000 C   0  0  0  0  0  0  0  0  0  0  0  0
    4.0586    1.4772    0.0000 C   0  0  0  0  0  0  0  0  0  0  0  0
    5.4681    1.9902    0.0000 C   0  0  0  0  0  0  0  0  0  0  0  0
  1  2  1  0
  2  3  1  0
  3  4  2  0
  4  5  1  0
  5  6  2  0
  6  7  1  0
  7  8  2  0
  8  9  1  0
  9 10  2  0
 10 11  1  0
 11 12  2  0
 12 13  1  0
 13 14  2  0
 14 15  1  0
 15 16  2  0
 16 17  1  0
 17 18  2  0
 18 19  1  0
 19 20  2  0
 20 21  1  0
 20  3  1  0
M  END
>  <Title>  (443) 
idAARAgen8

$$$$

     RDKit          2D

 41 46  0  0  0  0  0  0  0  0999 V2000
    3.9786   -1.2990    0.0000 C   0  0  0  0  0  0  0  0  0  0  0  0
    3.2286   -0.0000    0.0000 C   0  0  0  0  0  0  0  0  0  0  0  0
    1.7286    0.0000    0.0000 C   0  0  0  0  0  0  0  0  0  0  0  0
    1.0777    1.3515    0.0000 C   0  0  0  0  0  0  0  0  0  0  0  0
   -0.3846    1.6852    0.0000 C   0  0  0  0  0  0  0  0  0  0  0  0
   -1.5574    0.7500    0.0000 C   0  0  0  0  0  0  0  0  0  0  0  0
   -2.9088    1.4008    0.0000 C   0  0  0  0  0  0  0  0  0  0  0  0
   -4.2297    0.6900    0.0000 N   0  0  0  0  0  0  0  0  0  0  0  0
   -5.3139    1.7266    0.0000 N   0  0  0  0  0  0  0  0  0  0  0  0
   -4.6631    3.0781    0.0000 N   0  0  0  0  0  0  0  0  0  0  0  0
   -3.1767    2.8767    0.0000 N   0  0  0  0  0  0  0  0  0  0  0  0
   -2.1401    3.9609    0.0000 C   0  0  0  0  0  0  0  0  0  0  0  0
   -0.6829    3.6053    0.0000 C   0  0  0  0  0  0  0  0  0  0  0  0
    0.3537    4.6895    0.0000 C   0  0  0  0  0  0  0  0  0  0  0  0
   -0.0669    6.1293    0.0000 C   0  0  0  0  0  0  0  0  0  0  0  0
   -1.5241    6.4849    0.0000 C   0  0  0  0  0  0  0  0  0  0  0  0
   -2.5607    5.4007    0.0000 C   0  0  0  0  0  0  0  0  0  0  0  0
   -4.0180    5.7563    0.0000 C   0  0  0  0  0  0  0  0  0  0  0  0
   -5.1622    4.7864    0.0000 C   0  0  0  0  0  0  0  0  0  0  0  0
   -6.4382    5.5750    0.0000 C   0  0  0  0  0  0  0  0  0  0  0  0
   -6.0826    7.0322    0.0000 C   0  0  0  0  0  0  0  0  0  0  0  0
   -7.0525    8.1765    0.0000 C   0  0  0  0  0  0  0  0  0  0  0  0
   -8.5284    7.9086    0.0000 O   0  0  0  0  0  0  0  0  0  0  0  0
   -6.5465    9.5885    0.0000 N   0  0  0  0  0  0  0  0  0  0  0  0
   -7.5164   10.7328    0.0000 C   0  0  0  0  0  0  0  0  0  0  0  0
   -9.0122   10.6207    0.0000 N   0  0  0  0  0  0  0  0  0  0  0  0
   -9.5811   12.0086    0.0000 N   0  0  0  0  0  0  0  0  0  0  0  0
   -8.4368   12.9785    0.0000 N   0  0  0  0  0  0  0  0  0  0  0  0
   -7.1608   12.1900    0.0000 N   0  0  0  0  0  0  0  0  0  0  0  0
   -5.7728   12.7588    0.0000 C   0  0  0  0  0  0  0  0  0  0  0  0
   -4.5862   11.8413    0.0000 C   0  0  0  0  0  0  0  0  0  0  0  0
   -3.1983   12.4101    0.0000 C   0  0  0  0  0  0  0  0  0  0  0  0
   -2.9969   13.8965    0.0000 C   0  0  0  0  0  0  0  0  0  0  0  0
   -4.1835   14.8141    0.0000 C   0  0  0  0  0  0  0  0  0  0  0  0
   -5.5715   14.2453    0.0000 C   0  0  0  0  0  0  0  0  0  0  0  0
   -4.5868    7.1443    0.0000 C   0  0  0  0  0  0  0  0  0  0  0  0
   -3.7983    8.4203    0.0000 O   0  0  0  0  0  0  0  0  0  0  0  0
   -1.5574   -0.7500    0.0000 N   0  0  0  0  0  0  0  0  0  0  0  0
   -0.3846   -1.6852    0.0000 C   0  0  0  0  0  0  0  0  0  0  0  0
   -0.7184   -3.1476    0.0000 O   0  0  0  0  0  0  0  0  0  0  0  0
    1.0777   -1.3515    0.0000 C   0  0  0  0  0  0  0  0  0  0  0  0
  1  2  1  0
  2  3  1  0
  3  4  2  0
  4  5  1  0
  5  6  2  0
  6  7  1  0
  7  8  2  0
  8  9  1  0
  9 10  2  0
 10 11  1  0
 11 12  1  0
 12 13  1  0
 13 14  1  0
 14 15  1  0
 15 16  1  0
 16 17  1  0
 17 18  1  0
 18 19  2  0
 19 20  1  0
 20 21  2  0
 21 22  1  0
 22 23  2  0
 22 24  1  0
 24 25  1  0
 25 26  2  0
 26 27  1  0
 27 28  2  0
 28 29  1  0
 29 30  1  0
 30 31  2  0
 31 32  1  0
 32 33  2  0
 33 34  1  0
 34 35  2  0
 21 36  1  0
 36 37  2  0
  6 38  1  0
 38 39  1  0
 39 40  2  0
 39 41  1  0
 41  3  1  0
 11  7  1  0
 17 12  1  0
 36 18  1  0
 29 25  1  0
 35 30  1  0
M  END
>  <Title>  (444) 
idAARBgen8

$$$$

     RDKit          2D

 33 35  0  0  0  0  0  0  0  0999 V2000
    3.0000    0.0000    0.0000 C   0  0  0  0  0  0  0  0  0  0  0  0
    1.5000    0.0000    0.0000 C   0  0  0  0  0  0  0  0  0  0  0  0
    0.7500   -1.2990    0.0000 C   0  0  0  0  0  0  0  0  0  0  0  0
   -0.7500   -1.2990    0.0000 C   0  0  0  0  0  0  0  0  0  0  0  0
   -1.5000    0.0000    0.0000 C   0  0  0  0  0  0  0  0  0  0  0  0
   -3.0000    0.0000    0.0000 C   0  0  0  0  0  0  0  0  0  0  0  0
   -3.7500    1.2990    0.0000 C   0  0  0  0  0  0  0  0  0  0  0  0
   -5.2500    1.2990    0.0000 C   0  0  0  0  0  0  0  0  0  0  0  0
   -6.0000    2.5981    0.0000 C   0  0  0  0  0  0  0  0  0  0  0  0
   -7.5000    2.5981    0.0000 C   0  0  0  0  0  0  0  0  0  0  0  0
   -8.2500    3.8971    0.0000 C   0  0  0  0  0  0  0  0  0  0  0  0
   -9.7500    3.8971    0.0000 C   0  0  0  0  0  0  0  0  0  0  0  0
  -10.5000    5.1962    0.0000 C   0  0  0  0  0  0  0  0  0  0  0  0
  -12.0000    5.1962    0.0000 C   0  0  0  0  0  0  0  0  0  0  0  0
  -12.7500    6.4952    0.0000 C   0  0  0  0  0  0  0  0  0  0  0  0
  -14.2500    6.4952    0.0000 C   0  0  0  0  0  0  0  0  0  0  0  0
  -15.0000    7.7942    0.0000 C   0  0  0  0  0  0  0  0  0  0  0  0
  -16.5000    7.7942    0.0000 C   0  0  0  0  0  0  0  0  0  0  0  0
  -17.2500    9.0933    0.0000 C   0  0  0  0  0  0  0  0  0  0  0  0
  -18.7500    9.0933    0.0000 N   0  0  0  0  0  0  0  0  0  0  0  0
  -19.5000    7.7942    0.0000 N   0  0  0  0  0  0  0  0  0  0  0  0
  -18.7500    6.4952    0.0000 N   0  0  0  0  0  0  0  0  0  0  0  0
  -17.2500    6.4952    0.0000 N   0  0  0  0  0  0  0  0  0  0  0  0
  -16.5000    5.1962    0.0000 C   0  0  0  0  0  0  0  0  0  0  0  0
  -17.2500    3.8971    0.0000 C   0  0  0  0  0  0  0  0  0  0  0  0
  -16.5000    2.5981    0.0000 C   0  0  0  0  0  0  0  0  0  0  0  0
  -15.0000    2.5981    0.0000 C   0  0  0  0  0  0  0  0  0  0  0  0
  -14.2500    1.2990    0.0000 C   0  0  0  0  0  0  0  0  0  0  0  0
  -14.2500    3.8971    0.0000 C   0  0  0  0  0  0  0  0  0  0  0  0
  -12.7500    3.8971    0.0000 O   0  0  0  0  0  0  0  0  0  0  0  0
  -15.0000    5.1962    0.0000 N   0  0  0  0  0  0  0  0  0  0  0  0
   -0.7500    1.2990    0.0000 N   0  0  0  0  0  0  0  0  0  0  0  0
    0.7500    1.2990    0.0000 N   0  0  0  0  0  0  0  0  0  0  0  0
  1  2  1  0
  2  3  2  0
  3  4  1  0
  4  5  2  0
  5  6  1  0
  6  7  1  0
  7  8  1  0
  8  9  1  0
  9 10  2  3
 10 11  1  0
 11 12  2  3
 12 13  1  0
 13 14  2  3
 14 15  1  0
 15 16  2  3
 16 17  1  0
 17 18  2  3
 18 19  1  0
 19 20  2  0
 20 21  1  0
 21 22  2  0
 22 23  1  0
 23 24  1  0
 24 25  2  0
 25 26  1  0
 26 27  2  0
 27 28  1  0
 27 29  1  0
 29 30  2  0
 29 31  1  0
  5 32  1  0
 32 33  2  0
 33  2  1  0
 23 18  1  0
 31 24  1  0
M  END
>  <Title>  (445) 
idAARCgen8

$$$$

     RDKit          2D

 16 16  0  0  0  0  0  0  0  0999 V2000
    4.8705    0.0000    0.0000 C   0  0  0  0  0  0  0  0  0  0  0  0
    3.3705    0.0000    0.0000 C   0  0  0  0  0  0  0  0  0  0  0  0
    3.0367   -1.4624    0.0000 C   0  0  0  0  0  0  0  0  0  0  0  0
    2.1015   -2.6351    0.0000 C   0  0  0  0  0  0  0  0  0  0  0  0
    0.7500   -3.2860    0.0000 C   0  0  0  0  0  0  0  0  0  0  0  0
   -0.7500   -3.2860    0.0000 C   0  0  0  0  0  0  0  0  0  0  0  0
   -2.1015   -2.6351    0.0000 C   0  0  0  0  0  0  0  0  0  0  0  0
   -3.0367   -1.4624    0.0000 C   0  0  0  0  0  0  0  0  0  0  0  0
   -3.3705    0.0000    0.0000 C   0  0  0  0  0  0  0  0  0  0  0  0
   -3.0367    1.4624    0.0000 C   0  0  0  0  0  0  0  0  0  0  0  0
   -2.1015    2.6351    0.0000 C   0  0  0  0  0  0  0  0  0  0  0  0
   -0.7500    3.2860    0.0000 C   0  0  0  0  0  0  0  0  0  0  0  0
    0.7500    3.2860    0.0000 C   0  0  0  0  0  0  0  0  0  0  0  0
    2.1015    2.6351    0.0000 C   0  0  0  0  0  0  0  0  0  0  0  0
    3.0367    1.4624    0.0000 C   0  0  0  0  0  0  0  0  0  0  0  0
    4.3881    2.1132    0.0000 O   0  0  0  0  0  0  0  0  0  0  0  0
  1  2  1  0
  2  3  2  0
  3  4  1  0
  4  5  2  0
  5  6  1  0
  6  7  2  0
  7  8  1  0
  8  9  2  0
  9 10  1  0
 10 11  2  0
 11 12  1  0
 12 13  2  0
 13 14  1  0
 14 15  2  0
 15 16  1  0
 15  2  1  0
M  END
>  <Title>  (446) 
idAARDgen8

$$$$

     RDKit          2D

 31 35  0  0  0  0  0  0  0  0999 V2000
    3.6172    7.2057    0.0000 O   0  0  0  0  0  0  0  0  0  0  0  0
    4.8308    6.3240    0.0000 C   0  0  0  0  0  0  0  0  0  0  0  0
    6.2011    6.9341    0.0000 N   0  0  0  0  0  0  0  0  0  0  0  0
    7.4146    6.0524    0.0000 C   0  0  0  0  0  0  0  0  0  0  0  0
    8.7849    6.6625    0.0000 C   0  0  0  0  0  0  0  0  0  0  0  0
    9.9984    5.7808    0.0000 O   0  0  0  0  0  0  0  0  0  0  0  0
    7.2578    4.5606    0.0000 C   0  0  0  0  0  0  0  0  0  0  0  0
    5.8875    3.9505    0.0000 C   0  0  0  0  0  0  0  0  0  0  0  0
    4.6740    4.8322    0.0000 C   0  0  0  0  0  0  0  0  0  0  0  0
    3.3037    4.2221    0.0000 C   0  0  0  0  0  0  0  0  0  0  0  0
    2.0046    4.9721    0.0000 N   0  0  0  0  0  0  0  0  0  0  0  0
    0.8899    3.9684    0.0000 N   0  0  0  0  0  0  0  0  0  0  0  0
    1.5000    2.5981    0.0000 N   0  0  0  0  0  0  0  0  0  0  0  0
    2.9918    2.7549    0.0000 N   0  0  0  0  0  0  0  0  0  0  0  0
    3.9955    1.6402    0.0000 C   0  0  0  0  0  0  0  0  0  0  0  0
    3.5320    0.2136    0.0000 C   0  0  0  0  0  0  0  0  0  0  0  0
    4.5356   -0.9012    0.0000 C   0  0  0  0  0  0  0  0  0  0  0  0
    6.0029   -0.5893    0.0000 C   0  0  0  0  0  0  0  0  0  0  0  0
    7.0066   -1.7040    0.0000 C   0  0  0  0  0  0  0  0  0  0  0  0
    8.4983   -1.5472    0.0000 N   0  0  0  0  0  0  0  0  0  0  0  0
    9.1085   -2.9175    0.0000 N   0  0  0  0  0  0  0  0  0  0  0  0
    7.9937   -3.9212    0.0000 N   0  0  0  0  0  0  0  0  0  0  0  0
    6.6947   -3.1712    0.0000 N   0  0  0  0  0  0  0  0  0  0  0  0
    5.3244   -3.7813    0.0000 C   0  0  0  0  0  0  0  0  0  0  0  0
    4.1109   -2.8996    0.0000 C   0  0  0  0  0  0  0  0  0  0  0  0
    2.7405   -3.5098    0.0000 C   0  0  0  0  0  0  0  0  0  0  0  0
    2.5837   -5.0015    0.0000 C   0  0  0  0  0  0  0  0  0  0  0  0
    3.7973   -5.8832    0.0000 C   0  0  0  0  0  0  0  0  0  0  0  0
    5.1676   -5.2731    0.0000 C   0  0  0  0  0  0  0  0  0  0  0  0
    6.4664    0.8373    0.0000 C   0  0  0  0  0  0  0  0  0  0  0  0
    5.4627    1.9520    0.0000 C   0  0  0  0  0  0  0  0  0  0  0  0
  1  2  2  0
  2  3  1  0
  3  4  1  0
  4  5  1  0
  5  6  1  0
  4  7  2  0
  7  8  1  0
  8  9  2  0
  9 10  1  0
 10 11  2  0
 11 12  1  0
 12 13  2  0
 13 14  1  0
 14 15  1  0
 15 16  2  0
 16 17  1  0
 17 18  2  0
 18 19  1  0
 19 20  2  0
 20 21  1  0
 21 22  2  0
 22 23  1  0
 23 24  1  0
 24 25  2  0
 25 26  1  0
 26 27  2  0
 27 28  1  0
 28 29  2  0
 18 30  1  0
 30 31  2  0
  9  2  1  0
 14 10  1  0
 31 15  1  0
 23 19  1  0
 29 24  1  0
M  END
>  <Title>  (447) 
idAAREgen8

$$$$

     RDKit          2D

 15 15  0  0  0  0  0  0  0  0999 V2000
    6.1771   -1.2990    0.0000 C   0  0  0  0  0  0  0  0  0  0  0  0
    4.6771   -1.2990    0.0000 C   0  0  0  0  0  0  0  0  0  0  0  0
    3.9271   -2.5981    0.0000 O   0  0  0  0  0  0  0  0  0  0  0  0
    3.9271    0.0000    0.0000 O   0  0  0  0  0  0  0  0  0  0  0  0
    2.4271    0.0000    0.0000 C   0  0  0  0  0  0  0  0  0  0  0  0
    1.9635   -1.4266    0.0000 C   0  0  0  0  0  0  0  0  0  0  0  0
    0.7500   -2.3083    0.0000 C   0  0  0  0  0  0  0  0  0  0  0  0
   -0.7500   -2.3083    0.0000 C   0  0  0  0  0  0  0  0  0  0  0  0
   -1.9635   -1.4266    0.0000 C   0  0  0  0  0  0  0  0  0  0  0  0
   -2.4271    0.0000    0.0000 C   0  0  0  0  0  0  0  0  0  0  0  0
   -1.9635    1.4266    0.0000 C   0  0  0  0  0  0  0  0  0  0  0  0
   -0.7500    2.3083    0.0000 C   0  0  0  0  0  0  0  0  0  0  0  0
   -1.2135    3.7348    0.0000 O   0  0  0  0  0  0  0  0  0  0  0  0
    0.7500    2.3083    0.0000 C   0  0  0  0  0  0  0  0  0  0  0  0
    1.9635    1.4266    0.0000 C   0  0  0  0  0  0  0  0  0  0  0  0
  1  2  1  0
  2  3  2  0
  2  4  1  0
  4  5  1  0
  5  6  2  0
  6  7  1  0
  7  8  2  0
  8  9  1  0
  9 10  2  0
 10 11  1  0
 11 12  2  0
 12 13  1  0
 12 14  1  0
 14 15  2  0
 15  5  1  0
M  END
>  <Title>  (448) 
idAARFgen8

$$$$

     RDKit          2D

 23 24  0  0  0  0  0  0  0  0999 V2000
    6.2548    1.8359    0.0000 C   0  0  0  0  0  0  0  0  0  0  0  0
    5.9649    3.3076    0.0000 O   0  0  0  0  0  0  0  0  0  0  0  0
    4.5454    3.7924    0.0000 C   0  0  0  0  0  0  0  0  0  0  0  0
    3.7760    2.5048    0.0000 C   0  0  0  0  0  0  0  0  0  0  0  0
    2.5495    1.6413    0.0000 C   0  0  0  0  0  0  0  0  0  0  0  0
    1.0777    1.3515    0.0000 C   0  0  0  0  0  0  0  0  0  0  0  0
    1.7286    0.0000    0.0000 C   0  0  0  0  0  0  0  0  0  0  0  0
    1.0777   -1.3515    0.0000 C   0  0  0  0  0  0  0  0  0  0  0  0
   -0.3846   -1.6852    0.0000 C   0  0  0  0  0  0  0  0  0  0  0  0
   -1.5574   -0.7500    0.0000 C   0  0  0  0  0  0  0  0  0  0  0  0
   -1.5574    0.7500    0.0000 C   0  0  0  0  0  0  0  0  0  0  0  0
   -0.3846    1.6852    0.0000 C   0  0  0  0  0  0  0  0  0  0  0  0
   -1.5848    2.5850    0.0000 C   0  0  0  0  0  0  0  0  0  0  0  0
   -2.3153    3.8951    0.0000 C   0  0  0  0  0  0  0  0  0  0  0  0
   -2.4498    5.3890    0.0000 C   0  0  0  0  0  0  0  0  0  0  0  0
   -1.9650    6.8085    0.0000 C   0  0  0  0  0  0  0  0  0  0  0  0
   -0.9447    7.9081    0.0000 C   0  0  0  0  0  0  0  0  0  0  0  0
    0.4346    8.4976    0.0000 C   0  0  0  0  0  0  0  0  0  0  0  0
    1.9344    8.4752    0.0000 C   0  0  0  0  0  0  0  0  0  0  0  0
    3.2954    7.8447    0.0000 C   0  0  0  0  0  0  0  0  0  0  0  0
    4.2824    6.7151    0.0000 C   0  0  0  0  0  0  0  0  0  0  0  0
    4.7245    5.2817    0.0000 C   0  0  0  0  0  0  0  0  0  0  0  0
    6.2185    5.4162    0.0000 C   0  0  0  0  0  0  0  0  0  0  0  0
  1  2  1  0
  2  3  1  0
  3  4  2  0
  4  5  1  0
  5  6  2  0
  6  7  1  0
  7  8  2  0
  8  9  1  0
  9 10  2  0
 10 11  1  0
 11 12  2  0
 12 13  1  0
 13 14  1  0
 14 15  1  0
 15 16  2  0
 16 17  1  0
 17 18  2  0
 18 19  1  0
 19 20  2  0
 20 21  1  0
 21 22  2  0
 22 23  1  0
 22  3  1  0
 12  6  1  0
M  END
>  <Title>  (449) 
idAARGgen8

$$$$

     RDKit          2D

 35 39  0  0  0  0  0  0  0  0999 V2000
   -8.9519    8.6915    0.0000 C   0  0  0  0  0  0  0  0  0  0  0  0
   -7.7384    7.8099    0.0000 C   0  0  0  0  0  0  0  0  0  0  0  0
   -7.8952    6.3181    0.0000 C   0  0  0  0  0  0  0  0  0  0  0  0
   -6.6817    5.4364    0.0000 C   0  0  0  0  0  0  0  0  0  0  0  0
   -5.3113    6.0465    0.0000 C   0  0  0  0  0  0  0  0  0  0  0  0
   -4.0978    5.1648    0.0000 C   0  0  0  0  0  0  0  0  0  0  0  0
   -4.2546    3.6731    0.0000 C   0  0  0  0  0  0  0  0  0  0  0  0
   -5.5537    2.9231    0.0000 N   0  0  0  0  0  0  0  0  0  0  0  0
   -5.2418    1.4558    0.0000 N   0  0  0  0  0  0  0  0  0  0  0  0
   -3.7500    1.2990    0.0000 N   0  0  0  0  0  0  0  0  0  0  0  0
   -3.1399    2.6694    0.0000 N   0  0  0  0  0  0  0  0  0  0  0  0
   -1.6727    2.9812    0.0000 C   0  0  0  0  0  0  0  0  0  0  0  0
   -0.6690    1.8665    0.0000 C   0  0  0  0  0  0  0  0  0  0  0  0
    0.7982    2.1784    0.0000 C   0  0  0  0  0  0  0  0  0  0  0  0
    1.2618    3.6050    0.0000 C   0  0  0  0  0  0  0  0  0  0  0  0
    2.7290    3.9168    0.0000 C   0  0  0  0  0  0  0  0  0  0  0  0
    3.3391    5.2871    0.0000 N   0  0  0  0  0  0  0  0  0  0  0  0
    4.8309    5.1304    0.0000 N   0  0  0  0  0  0  0  0  0  0  0  0
    5.1427    3.6631    0.0000 N   0  0  0  0  0  0  0  0  0  0  0  0
    3.8437    2.9131    0.0000 N   0  0  0  0  0  0  0  0  0  0  0  0
    3.6869    1.4213    0.0000 C   0  0  0  0  0  0  0  0  0  0  0  0
    2.3166    0.8112    0.0000 C   0  0  0  0  0  0  0  0  0  0  0  0
    2.1598   -0.6805    0.0000 C   0  0  0  0  0  0  0  0  0  0  0  0
    3.3733   -1.5622    0.0000 C   0  0  0  0  0  0  0  0  0  0  0  0
    3.2165   -3.0540    0.0000 C   0  0  0  0  0  0  0  0  0  0  0  0
    1.8462   -3.6641    0.0000 O   0  0  0  0  0  0  0  0  0  0  0  0
    4.4301   -3.9357    0.0000 N   0  0  0  0  0  0  0  0  0  0  0  0
    4.2733   -5.4275    0.0000 O   0  0  0  0  0  0  0  0  0  0  0  0
    4.7436   -0.9521    0.0000 C   0  0  0  0  0  0  0  0  0  0  0  0
    4.9004    0.5397    0.0000 C   0  0  0  0  0  0  0  0  0  0  0  0
    0.2581    4.7197    0.0000 C   0  0  0  0  0  0  0  0  0  0  0  0
   -1.2091    4.4078    0.0000 C   0  0  0  0  0  0  0  0  0  0  0  0
   -5.1546    7.5383    0.0000 C   0  0  0  0  0  0  0  0  0  0  0  0
   -3.7842    8.1484    0.0000 O   0  0  0  0  0  0  0  0  0  0  0  0
   -6.3681    8.4200    0.0000 N   0  0  0  0  0  0  0  0  0  0  0  0
  1  2  1  0
  2  3  2  0
  3  4  1  0
  4  5  2  0
  5  6  1  0
  6  7  1  0
  7  8  2  0
  8  9  1  0
  9 10  2  0
 10 11  1  0
 11 12  1  0
 12 13  2  0
 13 14  1  0
 14 15  2  0
 15 16  1  0
 16 17  2  0
 17 18  1  0
 18 19  2  0
 19 20  1  0
 20 21  1  0
 21 22  2  0
 22 23  1  0
 23 24  2  0
 24 25  1  0
 25 26  2  0
 25 27  1  0
 27 28  1  0
 24 29  1  0
 29 30  1  0
 15 31  1  0
 31 32  2  0
  5 33  1  0
 33 34  2  0
 33 35  1  0
 35  2  1  0
 11  7  1  0
 32 12  1  0
 20 16  1  0
 30 21  1  0
M  END
>  <Title>  (450) 
idAARHgen8

$$$$

     RDKit          2D

 46 53  0  0  0  0  0  0  0  0999 V2000
    3.0000    0.0000    0.0000 C   0  0  0  0  0  0  0  0  0  0  0  0
    1.5000    0.0000    0.0000 C   0  0  0  0  0  0  0  0  0  0  0  0
    0.7500   -1.2990    0.0000 C   0  0  0  0  0  0  0  0  0  0  0  0
   -0.7500   -1.2990    0.0000 C   0  0  0  0  0  0  0  0  0  0  0  0
   -1.5000    0.0000    0.0000 C   0  0  0  0  0  0  0  0  0  0  0  0
   -3.0000    0.0000    0.0000 C   0  0  0  0  0  0  0  0  0  0  0  0
   -3.8817   -1.2135    0.0000 N   0  0  0  0  0  0  0  0  0  0  0  0
   -5.3083   -0.7500    0.0000 N   0  0  0  0  0  0  0  0  0  0  0  0
   -5.3083    0.7500    0.0000 N   0  0  0  0  0  0  0  0  0  0  0  0
   -3.8817    1.2135    0.0000 N   0  0  0  0  0  0  0  0  0  0  0  0
   -3.4182    2.6401    0.0000 C   0  0  0  0  0  0  0  0  0  0  0  0
   -1.9509    2.9520    0.0000 C   0  0  0  0  0  0  0  0  0  0  0  0
   -1.4874    4.3786    0.0000 C   0  0  0  0  0  0  0  0  0  0  0  0
   -2.4911    5.4933    0.0000 C   0  0  0  0  0  0  0  0  0  0  0  0
   -2.0276    6.9199    0.0000 C   0  0  0  0  0  0  0  0  0  0  0  0
   -2.9093    8.1334    0.0000 N   0  0  0  0  0  0  0  0  0  0  0  0
   -2.0276    9.3469    0.0000 N   0  0  0  0  0  0  0  0  0  0  0  0
   -0.6010    8.8834    0.0000 N   0  0  0  0  0  0  0  0  0  0  0  0
   -0.6010    7.3834    0.0000 N   0  0  0  0  0  0  0  0  0  0  0  0
    0.6125    6.5017    0.0000 C   0  0  0  0  0  0  0  0  0  0  0  0
    0.4557    5.0099    0.0000 C   0  0  0  0  0  0  0  0  0  0  0  0
    1.6693    4.1283    0.0000 C   0  0  0  0  0  0  0  0  0  0  0  0
    3.0396    4.7384    0.0000 C   0  0  0  0  0  0  0  0  0  0  0  0
    3.1964    6.2301    0.0000 C   0  0  0  0  0  0  0  0  0  0  0  0
    1.9829    7.1118    0.0000 C   0  0  0  0  0  0  0  0  0  0  0  0
   -3.9583    5.1814    0.0000 C   0  0  0  0  0  0  0  0  0  0  0  0
   -4.4218    3.7548    0.0000 C   0  0  0  0  0  0  0  0  0  0  0  0
   -5.8891    3.4430    0.0000 C   0  0  0  0  0  0  0  0  0  0  0  0
   -6.4992    2.0726    0.0000 C   0  0  0  0  0  0  0  0  0  0  0  0
   -7.9910    2.2294    0.0000 C   0  0  0  0  0  0  0  0  0  0  0  0
   -8.3028    3.6967    0.0000 C   0  0  0  0  0  0  0  0  0  0  0  0
   -9.6731    4.3068    0.0000 C   0  0  0  0  0  0  0  0  0  0  0  0
  -10.9722    3.5568    0.0000 N   0  0  0  0  0  0  0  0  0  0  0  0
  -12.0869    4.5605    0.0000 N   0  0  0  0  0  0  0  0  0  0  0  0
  -11.4768    5.9308    0.0000 N   0  0  0  0  0  0  0  0  0  0  0  0
   -9.9850    5.7740    0.0000 N   0  0  0  0  0  0  0  0  0  0  0  0
   -8.9813    6.8887    0.0000 C   0  0  0  0  0  0  0  0  0  0  0  0
   -7.5141    6.5768    0.0000 C   0  0  0  0  0  0  0  0  0  0  0  0
   -6.5104    7.6915    0.0000 C   0  0  0  0  0  0  0  0  0  0  0  0
   -6.9739    9.1181    0.0000 C   0  0  0  0  0  0  0  0  0  0  0  0
   -8.4411    9.4300    0.0000 C   0  0  0  0  0  0  0  0  0  0  0  0
   -9.4448    8.3153    0.0000 C   0  0  0  0  0  0  0  0  0  0  0  0
   -7.0038    4.4467    0.0000 C   0  0  0  0  0  0  0  0  0  0  0  0
   -6.8470    5.9384    0.0000 O   0  0  0  0  0  0  0  0  0  0  0  0
   -0.7500    1.2990    0.0000 N   0  0  0  0  0  0  0  0  0  0  0  0
    0.7500    1.2990    0.0000 C   0  0  0  0  0  0  0  0  0  0  0  0
  1  2  1  0
  2  3  2  0
  3  4  1  0
  4  5  2  0
  5  6  1  0
  6  7  2  0
  7  8  1  0
  8  9  2  0
  9 10  1  0
 10 11  1  0
 11 12  2  0
 12 13  1  0
 13 14  2  0
 14 15  1  0
 15 16  2  0
 16 17  1  0
 17 18  2  0
 18 19  1  0
 19 20  1  0
 20 21  2  0
 21 22  1  0
 22 23  2  0
 23 24  1  0
 24 25  2  0
 14 26  1  0
 26 27  2  0
 27 28  1  0
 28 29  2  0
 29 30  1  0
 30 31  2  0
 31 32  1  0
 32 33  2  0
 33 34  1  0
 34 35  2  0
 35 36  1  0
 36 37  1  0
 37 38  2  0
 38 39  1  0
 39 40  2  0
 40 41  1  0
 41 42  2  0
 31 43  1  0
 43 44  2  0
  5 45  1  0
 45 46  1  0
 46  2  1  0
 10  6  1  0
 27 11  1  0
 43 28  1  0
 19 15  1  0
 25 20  1  0
 36 32  1  0
 42 37  1  0
M  END
>  <Title>  (451) 
idAARIgen8

$$$$

     RDKit          2D

 43 49  0  0  0  0  0  0  0  0999 V2000
   -1.2704    9.1505    0.0000 C   0  0  0  0  0  0  0  0  0  0  0  0
   -1.5216    7.6717    0.0000 C   0  0  0  0  0  0  0  0  0  0  0  0
   -0.1582    7.0463    0.0000 C   0  0  0  0  0  0  0  0  0  0  0  0
    0.7098    5.8229    0.0000 C   0  0  0  0  0  0  0  0  0  0  0  0
    0.4610    4.0536    0.0000 C   0  0  0  0  0  0  0  0  0  0  0  0
    1.3290    2.8303    0.0000 N   0  0  0  0  0  0  0  0  0  0  0  0
    1.0777    1.3515    0.0000 C   0  0  0  0  0  0  0  0  0  0  0  0
    1.7286    0.0000    0.0000 C   0  0  0  0  0  0  0  0  0  0  0  0
    1.0777   -1.3515    0.0000 C   0  0  0  0  0  0  0  0  0  0  0  0
   -0.3846   -1.6852    0.0000 C   0  0  0  0  0  0  0  0  0  0  0  0
   -1.5574   -0.7500    0.0000 C   0  0  0  0  0  0  0  0  0  0  0  0
   -1.5574    0.7500    0.0000 C   0  0  0  0  0  0  0  0  0  0  0  0
   -0.3846    1.6852    0.0000 N   0  0  0  0  0  0  0  0  0  0  0  0
   -2.4924    1.9580    0.0000 C   0  0  0  0  0  0  0  0  0  0  0  0
   -3.8558    2.5835    0.0000 C   0  0  0  0  0  0  0  0  0  0  0  0
   -4.7238    3.8068    0.0000 C   0  0  0  0  0  0  0  0  0  0  0  0
   -4.8638    5.3003    0.0000 C   0  0  0  0  0  0  0  0  0  0  0  0
   -6.3427    5.5515    0.0000 C   0  0  0  0  0  0  0  0  0  0  0  0
   -6.8645    6.9579    0.0000 C   0  0  0  0  0  0  0  0  0  0  0  0
   -8.3433    7.2091    0.0000 C   0  0  0  0  0  0  0  0  0  0  0  0
   -9.3003    6.0541    0.0000 C   0  0  0  0  0  0  0  0  0  0  0  0
   -8.7785    4.6477    0.0000 C   0  0  0  0  0  0  0  0  0  0  0  0
   -7.2997    4.3965    0.0000 C   0  0  0  0  0  0  0  0  0  0  0  0
   -6.7778    2.9902    0.0000 N   0  0  0  0  0  0  0  0  0  0  0  0
   -5.2990    2.7389    0.0000 N   0  0  0  0  0  0  0  0  0  0  0  0
   -4.7772    1.3326    0.0000 N   0  0  0  0  0  0  0  0  0  0  0  0
   -5.7342    0.1775    0.0000 N   0  0  0  0  0  0  0  0  0  0  0  0
   -7.2130    0.4288    0.0000 N   0  0  0  0  0  0  0  0  0  0  0  0
   -7.7348    1.8351    0.0000 N   0  0  0  0  0  0  0  0  0  0  0  0
   -9.2137    2.0864    0.0000 C   0  0  0  0  0  0  0  0  0  0  0  0
  -10.1707    0.9313    0.0000 C   0  0  0  0  0  0  0  0  0  0  0  0
  -11.6495    1.1826    0.0000 C   0  0  0  0  0  0  0  0  0  0  0  0
  -12.1713    2.5889    0.0000 C   0  0  0  0  0  0  0  0  0  0  0  0
  -11.2143    3.7439    0.0000 C   0  0  0  0  0  0  0  0  0  0  0  0
   -9.7355    3.4927    0.0000 C   0  0  0  0  0  0  0  0  0  0  0  0
   -4.2384    6.6637    0.0000 C   0  0  0  0  0  0  0  0  0  0  0  0
   -5.3935    7.6207    0.0000 O   0  0  0  0  0  0  0  0  0  0  0  0
   -3.0151    7.5317    0.0000 N   0  0  0  0  0  0  0  0  0  0  0  0
   -2.2411    3.4369    0.0000 N   0  0  0  0  0  0  0  0  0  0  0  0
   -3.4447    4.3321    0.0000 N   0  0  0  0  0  0  0  0  0  0  0  0
   -2.9652    5.7534    0.0000 N   0  0  0  0  0  0  0  0  0  0  0  0
   -1.4653    5.7366    0.0000 N   0  0  0  0  0  0  0  0  0  0  0  0
   -1.0178    4.3049    0.0000 C   0  0  0  0  0  0  0  0  0  0  0  0
  1  2  1  0
  2  3  2  0
  3  4  1  0
  4  5  2  0
  5  6  1  0
  6  7  1  0
  7  8  2  0
  8  9  1  0
  9 10  2  0
 10 11  1  0
 11 12  2  0
 12 13  1  0
 12 14  1  0
 14 15  2  0
 15 16  1  0
 16 17  2  0
 17 18  1  0
 18 19  2  0
 19 20  1  0
 20 21  2  0
 21 22  1  0
 22 23  2  0
 23 24  1  0
 24 25  1  0
 25 26  2  0
 26 27  1  0
 27 28  2  0
 28 29  1  0
 29 30  1  0
 30 31  2  0
 31 32  1  0
 32 33  2  0
 33 34  1  0
 34 35  2  0
 17 36  1  0
 36 37  2  0
 36 38  1  0
 14 39  1  0
 39 40  1  0
 40 41  2  0
 41 42  1  0
 42 43  2  0
 38  2  1  0
 43 39  1  0
 43  5  1  0
 13  7  1  0
 23 18  1  0
 29 24  1  0
 35 30  1  0
M  END
>  <Title>  (452) 
idAARJgen8

$$$$

     RDKit          2D

 30 33  0  0  0  0  0  0  0  0999 V2000
    3.0000    0.0000    0.0000 C   0  0  0  0  0  0  0  0  0  0  0  0
    1.5000    0.0000    0.0000 C   0  0  0  0  0  0  0  0  0  0  0  0
    0.7500   -1.2990    0.0000 C   0  0  0  0  0  0  0  0  0  0  0  0
   -0.7500   -1.2990    0.0000 C   0  0  0  0  0  0  0  0  0  0  0  0
   -1.5000    0.0000    0.0000 C   0  0  0  0  0  0  0  0  0  0  0  0
   -3.0000    0.0000    0.0000 C   0  0  0  0  0  0  0  0  0  0  0  0
   -3.8817   -1.2135    0.0000 N   0  0  0  0  0  0  0  0  0  0  0  0
   -5.3083   -0.7500    0.0000 N   0  0  0  0  0  0  0  0  0  0  0  0
   -5.3083    0.7500    0.0000 N   0  0  0  0  0  0  0  0  0  0  0  0
   -3.8817    1.2135    0.0000 N   0  0  0  0  0  0  0  0  0  0  0  0
   -3.4182    2.6401    0.0000 C   0  0  0  0  0  0  0  0  0  0  0  0
   -4.2998    3.8536    0.0000 C   0  0  0  0  0  0  0  0  0  0  0  0
   -3.4182    5.0672    0.0000 C   0  0  0  0  0  0  0  0  0  0  0  0
   -1.9916    4.6036    0.0000 C   0  0  0  0  0  0  0  0  0  0  0  0
   -0.7780    5.4853    0.0000 C   0  0  0  0  0  0  0  0  0  0  0  0
    0.5923    4.8752    0.0000 C   0  0  0  0  0  0  0  0  0  0  0  0
    1.8058    5.7569    0.0000 C   0  0  0  0  0  0  0  0  0  0  0  0
    1.6490    7.2487    0.0000 C   0  0  0  0  0  0  0  0  0  0  0  0
    2.8625    8.1303    0.0000 C   0  0  0  0  0  0  0  0  0  0  0  0
    2.7057    9.6221    0.0000 O   0  0  0  0  0  0  0  0  0  0  0  0
    4.2329    7.5202    0.0000 N   0  0  0  0  0  0  0  0  0  0  0  0
    5.4464    8.4019    0.0000 O   0  0  0  0  0  0  0  0  0  0  0  0
    0.2787    7.8588    0.0000 N   0  0  0  0  0  0  0  0  0  0  0  0
   -0.9348    6.9771    0.0000 C   0  0  0  0  0  0  0  0  0  0  0  0
   -2.3052    7.5872    0.0000 O   0  0  0  0  0  0  0  0  0  0  0  0
   -1.9916    3.1036    0.0000 C   0  0  0  0  0  0  0  0  0  0  0  0
   -0.7780    2.2220    0.0000 O   0  0  0  0  0  0  0  0  0  0  0  0
   -0.7500    1.2990    0.0000 N   0  0  0  0  0  0  0  0  0  0  0  0
    0.7500    1.2990    0.0000 C   0  0  0  0  0  0  0  0  0  0  0  0
    1.5000    2.5981    0.0000 O   0  0  0  0  0  0  0  0  0  0  0  0
  1  2  1  0
  2  3  2  0
  3  4  1  0
  4  5  2  0
  5  6  1  0
  6  7  2  0
  7  8  1  0
  8  9  2  0
  9 10  1  0
 10 11  1  0
 11 12  2  0
 12 13  1  0
 13 14  2  0
 14 15  1  0
 15 16  2  0
 16 17  1  0
 17 18  2  0
 18 19  1  0
 19 20  2  0
 19 21  1  0
 21 22  1  0
 18 23  1  0
 23 24  1  0
 24 25  2  0
 14 26  1  0
 26 27  2  0
  5 28  1  0
 28 29  1  0
 29 30  2  0
 29  2  1  0
 10  6  1  0
 26 11  1  0
 24 15  1  0
M  END
>  <Title>  (453) 
idAARKgen8

$$$$

     RDKit          2D

 46 48  0  0  0  0  0  0  0  0999 V2000
    8.7103    1.2990    0.0000 C   0  0  0  0  0  0  0  0  0  0  0  0
    7.9603    0.0000    0.0000 O   0  0  0  0  0  0  0  0  0  0  0  0
    6.4603    0.0000    0.0000 C   0  0  0  0  0  0  0  0  0  0  0  0
    6.2862    1.4899    0.0000 C   0  0  0  0  0  0  0  0  0  0  0  0
    5.7732    2.8994    0.0000 C   0  0  0  0  0  0  0  0  0  0  0  0
    4.9489    4.1526    0.0000 C   0  0  0  0  0  0  0  0  0  0  0  0
    3.8578    5.1820    0.0000 C   0  0  0  0  0  0  0  0  0  0  0  0
    2.5588    5.9320    0.0000 C   0  0  0  0  0  0  0  0  0  0  0  0
    1.1218    6.3622    0.0000 C   0  0  0  0  0  0  0  0  0  0  0  0
   -0.3756    6.4494    0.0000 C   0  0  0  0  0  0  0  0  0  0  0  0
   -1.8528    6.1889    0.0000 C   0  0  0  0  0  0  0  0  0  0  0  0
   -3.2302    5.5948    0.0000 C   0  0  0  0  0  0  0  0  0  0  0  0
   -4.4334    4.6991    0.0000 C   0  0  0  0  0  0  0  0  0  0  0  0
   -5.3975    3.5500    0.0000 C   0  0  0  0  0  0  0  0  0  0  0  0
   -6.0707    2.2096    0.0000 C   0  0  0  0  0  0  0  0  0  0  0  0
   -6.4167    0.7500    0.0000 C   0  0  0  0  0  0  0  0  0  0  0  0
   -6.4167   -0.7500    0.0000 C   0  0  0  0  0  0  0  0  0  0  0  0
   -6.0707   -2.2096    0.0000 C   0  0  0  0  0  0  0  0  0  0  0  0
   -5.3975   -3.5500    0.0000 C   0  0  0  0  0  0  0  0  0  0  0  0
   -4.4334   -4.6991    0.0000 C   0  0  0  0  0  0  0  0  0  0  0  0
   -3.2302   -5.5948    0.0000 C   0  0  0  0  0  0  0  0  0  0  0  0
   -1.8528   -6.1889    0.0000 C   0  0  0  0  0  0  0  0  0  0  0  0
   -0.3756   -6.4494    0.0000 C   0  0  0  0  0  0  0  0  0  0  0  0
    1.1218   -6.3622    0.0000 C   0  0  0  0  0  0  0  0  0  0  0  0
    2.5588   -5.9320    0.0000 C   0  0  0  0  0  0  0  0  0  0  0  0
    3.8578   -5.1820    0.0000 C   0  0  0  0  0  0  0  0  0  0  0  0
    4.9489   -4.1526    0.0000 C   0  0  0  0  0  0  0  0  0  0  0  0
    5.7732   -2.8994    0.0000 C   0  0  0  0  0  0  0  0  0  0  0  0
    7.1136   -3.5726    0.0000 C   0  0  0  0  0  0  0  0  0  0  0  0
    8.3669   -2.7483    0.0000 O   0  0  0  0  0  0  0  0  0  0  0  0
    7.2008   -5.0701    0.0000 N   0  0  0  0  0  0  0  0  0  0  0  0
    8.5413   -5.7433    0.0000 C   0  0  0  0  0  0  0  0  0  0  0  0
    9.7945   -4.9190    0.0000 N   0  0  0  0  0  0  0  0  0  0  0  0
   11.1350   -5.5922    0.0000 C   0  0  0  0  0  0  0  0  0  0  0  0
   11.2222   -7.0897    0.0000 N   0  0  0  0  0  0  0  0  0  0  0  0
    9.9690   -7.9139    0.0000 N   0  0  0  0  0  0  0  0  0  0  0  0
    8.6285   -7.2407    0.0000 C   0  0  0  0  0  0  0  0  0  0  0  0
    7.3753   -8.0650    0.0000 C   0  0  0  0  0  0  0  0  0  0  0  0
    6.0348   -7.3918    0.0000 C   0  0  0  0  0  0  0  0  0  0  0  0
    4.7816   -8.2160    0.0000 C   0  0  0  0  0  0  0  0  0  0  0  0
    4.8688   -9.7135    0.0000 C   0  0  0  0  0  0  0  0  0  0  0  0
    3.6156  -10.5378    0.0000 C   0  0  0  0  0  0  0  0  0  0  0  0
    6.2093  -10.3867    0.0000 C   0  0  0  0  0  0  0  0  0  0  0  0
    6.2965  -11.8842    0.0000 O   0  0  0  0  0  0  0  0  0  0  0  0
    7.4625   -9.5624    0.0000 N   0  0  0  0  0  0  0  0  0  0  0  0
    6.2862   -1.4899    0.0000 N   0  0  0  0  0  0  0  0  0  0  0  0
  1  2  1  0
  2  3  1  0
  3  4  2  0
  4  5  1  0
  5  6  2  0
  6  7  1  0
  7  8  2  0
  8  9  1  0
  9 10  2  0
 10 11  1  0
 11 12  2  0
 12 13  1  0
 13 14  2  0
 14 15  1  0
 15 16  2  0
 16 17  1  0
 17 18  2  0
 18 19  1  0
 19 20  2  0
 20 21  1  0
 21 22  2  0
 22 23  1  0
 23 24  2  0
 24 25  1  0
 25 26  2  0
 26 27  1  0
 27 28  2  0
 28 29  1  0
 29 30  2  0
 29 31  1  0
 31 32  1  0
 32 33  2  0
 33 34  1  0
 34 35  2  0
 35 36  1  0
 36 37  2  0
 37 38  1  0
 38 39  2  0
 39 40  1  0
 40 41  2  0
 41 42  1  0
 41 43  1  0
 43 44  2  0
 43 45  1  0
 28 46  1  0
 46  3  1  0
 37 32  1  0
 45 38  1  0
M  END
>  <Title>  (454) 
idAARLgen8

$$$$

     RDKit          2D

 30 34  0  0  0  0  0  0  0  0999 V2000
    3.7500   -1.2990    0.0000 C   0  0  0  0  0  0  0  0  0  0  0  0
    3.0000    0.0000    0.0000 O   0  0  0  0  0  0  0  0  0  0  0  0
    1.5000    0.0000    0.0000 C   0  0  0  0  0  0  0  0  0  0  0  0
    0.7500   -1.2990    0.0000 C   0  0  0  0  0  0  0  0  0  0  0  0
   -0.7500   -1.2990    0.0000 C   0  0  0  0  0  0  0  0  0  0  0  0
   -1.5000    0.0000    0.0000 C   0  0  0  0  0  0  0  0  0  0  0  0
   -3.0000    0.0000    0.0000 C   0  0  0  0  0  0  0  0  0  0  0  0
   -3.8817   -1.2135    0.0000 N   0  0  0  0  0  0  0  0  0  0  0  0
   -5.3083   -0.7500    0.0000 N   0  0  0  0  0  0  0  0  0  0  0  0
   -5.3083    0.7500    0.0000 N   0  0  0  0  0  0  0  0  0  0  0  0
   -3.8817    1.2135    0.0000 N   0  0  0  0  0  0  0  0  0  0  0  0
   -3.4182    2.6401    0.0000 C   0  0  0  0  0  0  0  0  0  0  0  0
   -1.9509    2.9520    0.0000 C   0  0  0  0  0  0  0  0  0  0  0  0
   -1.4874    4.3786    0.0000 C   0  0  0  0  0  0  0  0  0  0  0  0
   -2.4911    5.4933    0.0000 C   0  0  0  0  0  0  0  0  0  0  0  0
   -2.0276    6.9199    0.0000 C   0  0  0  0  0  0  0  0  0  0  0  0
   -2.9093    8.1334    0.0000 N   0  0  0  0  0  0  0  0  0  0  0  0
   -2.0276    9.3469    0.0000 N   0  0  0  0  0  0  0  0  0  0  0  0
   -0.6010    8.8834    0.0000 N   0  0  0  0  0  0  0  0  0  0  0  0
   -0.6010    7.3834    0.0000 N   0  0  0  0  0  0  0  0  0  0  0  0
    0.6125    6.5017    0.0000 C   0  0  0  0  0  0  0  0  0  0  0  0
    0.4557    5.0099    0.0000 C   0  0  0  0  0  0  0  0  0  0  0  0
    1.6693    4.1283    0.0000 C   0  0  0  0  0  0  0  0  0  0  0  0
    3.0396    4.7384    0.0000 C   0  0  0  0  0  0  0  0  0  0  0  0
    3.1964    6.2301    0.0000 C   0  0  0  0  0  0  0  0  0  0  0  0
    1.9829    7.1118    0.0000 C   0  0  0  0  0  0  0  0  0  0  0  0
   -3.9583    5.1814    0.0000 N   0  0  0  0  0  0  0  0  0  0  0  0
   -4.4218    3.7548    0.0000 N   0  0  0  0  0  0  0  0  0  0  0  0
   -0.7500    1.2990    0.0000 C   0  0  0  0  0  0  0  0  0  0  0  0
    0.7500    1.2990    0.0000 C   0  0  0  0  0  0  0  0  0  0  0  0
  1  2  1  0
  2  3  1  0
  3  4  2  0
  4  5  1  0
  5  6  2  0
  6  7  1  0
  7  8  2  0
  8  9  1  0
  9 10  2  0
 10 11  1  0
 11 12  1  0
 12 13  2  0
 13 14  1  0
 14 15  2  0
 15 16  1  0
 16 17  2  0
 17 18  1  0
 18 19  2  0
 19 20  1  0
 20 21  1  0
 21 22  2  0
 22 23  1  0
 23 24  2  0
 24 25  1  0
 25 26  2  0
 15 27  1  0
 27 28  2  0
  6 29  1  0
 29 30  2  0
 30  3  1  0
 11  7  1  0
 28 12  1  0
 20 16  1  0
 26 21  1  0
M  END
>  <Title>  (455) 
idAARMgen8

$$$$

     RDKit          2D

 41 41  0  0  0  0  0  0  0  0999 V2000
   11.0591    0.0000    0.0000 C   0  0  0  0  0  0  0  0  0  0  0  0
    9.5591    0.0000    0.0000 C   0  0  0  0  0  0  0  0  0  0  0  0
    9.4414   -1.4954    0.0000 C   0  0  0  0  0  0  0  0  0  0  0  0
    9.0913   -2.9539    0.0000 C   0  0  0  0  0  0  0  0  0  0  0  0
    8.5172   -4.3398    0.0000 C   0  0  0  0  0  0  0  0  0  0  0  0
    7.7335   -5.6187    0.0000 C   0  0  0  0  0  0  0  0  0  0  0  0
    6.7593   -6.7593    0.0000 C   0  0  0  0  0  0  0  0  0  0  0  0
    5.6187   -7.7335    0.0000 C   0  0  0  0  0  0  0  0  0  0  0  0
    4.3398   -8.5172    0.0000 C   0  0  0  0  0  0  0  0  0  0  0  0
    2.9539   -9.0913    0.0000 C   0  0  0  0  0  0  0  0  0  0  0  0
    1.4954   -9.4414    0.0000 C   0  0  0  0  0  0  0  0  0  0  0  0
   -0.0000   -9.5591    0.0000 C   0  0  0  0  0  0  0  0  0  0  0  0
   -1.4954   -9.4414    0.0000 C   0  0  0  0  0  0  0  0  0  0  0  0
   -2.9539   -9.0913    0.0000 C   0  0  0  0  0  0  0  0  0  0  0  0
   -4.3398   -8.5172    0.0000 C   0  0  0  0  0  0  0  0  0  0  0  0
   -5.6187   -7.7335    0.0000 C   0  0  0  0  0  0  0  0  0  0  0  0
   -6.7593   -6.7593    0.0000 C   0  0  0  0  0  0  0  0  0  0  0  0
   -7.7335   -5.6187    0.0000 C   0  0  0  0  0  0  0  0  0  0  0  0
   -8.5172   -4.3398    0.0000 C   0  0  0  0  0  0  0  0  0  0  0  0
   -9.0913   -2.9539    0.0000 C   0  0  0  0  0  0  0  0  0  0  0  0
   -9.4414   -1.4954    0.0000 C   0  0  0  0  0  0  0  0  0  0  0  0
   -9.5591    0.0000    0.0000 C   0  0  0  0  0  0  0  0  0  0  0  0
   -9.4414    1.4954    0.0000 C   0  0  0  0  0  0  0  0  0  0  0  0
   -9.0913    2.9539    0.0000 C   0  0  0  0  0  0  0  0  0  0  0  0
   -8.5172    4.3398    0.0000 C   0  0  0  0  0  0  0  0  0  0  0  0
   -7.7335    5.6187    0.0000 C   0  0  0  0  0  0  0  0  0  0  0  0
   -6.7593    6.7593    0.0000 C   0  0  0  0  0  0  0  0  0  0  0  0
   -5.6187    7.7335    0.0000 C   0  0  0  0  0  0  0  0  0  0  0  0
   -4.3398    8.5172    0.0000 C   0  0  0  0  0  0  0  0  0  0  0  0
   -2.9539    9.0913    0.0000 C   0  0  0  0  0  0  0  0  0  0  0  0
   -1.4954    9.4414    0.0000 C   0  0  0  0  0  0  0  0  0  0  0  0
    0.0000    9.5591    0.0000 C   0  0  0  0  0  0  0  0  0  0  0  0
    1.4954    9.4414    0.0000 C   0  0  0  0  0  0  0  0  0  0  0  0
    2.9539    9.0913    0.0000 C   0  0  0  0  0  0  0  0  0  0  0  0
    4.3398    8.5172    0.0000 C   0  0  0  0  0  0  0  0  0  0  0  0
    5.6187    7.7335    0.0000 C   0  0  0  0  0  0  0  0  0  0  0  0
    6.7593    6.7593    0.0000 C   0  0  0  0  0  0  0  0  0  0  0  0
    7.7335    5.6187    0.0000 C   0  0  0  0  0  0  0  0  0  0  0  0
    8.5172    4.3398    0.0000 C   0  0  0  0  0  0  0  0  0  0  0  0
    9.0913    2.9539    0.0000 C   0  0  0  0  0  0  0  0  0  0  0  0
    9.4414    1.4954    0.0000 C   0  0  0  0  0  0  0  0  0  0  0  0
  1  2  1  0
  2  3  2  0
  3  4  1  0
  4  5  2  0
  5  6  1  0
  6  7  2  0
  7  8  1  0
  8  9  2  0
  9 10  1  0
 10 11  2  0
 11 12  1  0
 12 13  2  0
 13 14  1  0
 14 15  2  0
 15 16  1  0
 16 17  2  0
 17 18  1  0
 18 19  2  0
 19 20  1  0
 20 21  2  0
 21 22  1  0
 22 23  2  0
 23 24  1  0
 24 25  2  0
 25 26  1  0
 26 27  2  0
 27 28  1  0
 28 29  2  0
 29 30  1  0
 30 31  2  0
 31 32  1  0
 32 33  2  0
 33 34  1  0
 34 35  2  0
 35 36  1  0
 36 37  2  0
 37 38  1  0
 38 39  2  0
 39 40  1  0
 40 41  2  0
 41  2  1  0
M  END
>  <Title>  (456) 
idAARNgen8

$$$$

     RDKit          2D

 49 56  0  0  0  0  0  0  0  0999 V2000
   -2.0180   11.4711    0.0000 C   0  0  0  0  0  0  0  0  0  0  0  0
   -0.8045   10.5894    0.0000 C   0  0  0  0  0  0  0  0  0  0  0  0
   -1.0723    9.1135    0.0000 C   0  0  0  0  0  0  0  0  0  0  0  0
   -0.0854    7.9839    0.0000 C   0  0  0  0  0  0  0  0  0  0  0  0
    1.4131    8.0512    0.0000 C   0  0  0  0  0  0  0  0  0  0  0  0
    2.1239    6.7303    0.0000 C   0  0  0  0  0  0  0  0  0  0  0  0
    3.6103    6.5290    0.0000 N   0  0  0  0  0  0  0  0  0  0  0  0
    3.8781    5.0531    0.0000 N   0  0  0  0  0  0  0  0  0  0  0  0
    2.5573    4.3423    0.0000 N   0  0  0  0  0  0  0  0  0  0  0  0
    1.4731    5.3789    0.0000 N   0  0  0  0  0  0  0  0  0  0  0  0
   -0.0028    5.1110    0.0000 C   0  0  0  0  0  0  0  0  0  0  0  0
   -1.0870    6.1476    0.0000 N   0  0  0  0  0  0  0  0  0  0  0  0
   -2.4079    5.4368    0.0000 N   0  0  0  0  0  0  0  0  0  0  0  0
   -2.1401    3.9609    0.0000 N   0  0  0  0  0  0  0  0  0  0  0  0
   -0.6537    3.7596    0.0000 N   0  0  0  0  0  0  0  0  0  0  0  0
    0.0571    2.4387    0.0000 C   0  0  0  0  0  0  0  0  0  0  0  0
    1.5436    2.2373    0.0000 N   0  0  0  0  0  0  0  0  0  0  0  0
    1.8114    0.7614    0.0000 C   0  0  0  0  0  0  0  0  0  0  0  0
    3.1629    0.1106    0.0000 C   0  0  0  0  0  0  0  0  0  0  0  0
    0.4905    0.0506    0.0000 C   0  0  0  0  0  0  0  0  0  0  0  0
    0.2892   -1.4358    0.0000 O   0  0  0  0  0  0  0  0  0  0  0  0
   -0.5937    1.0872    0.0000 N   0  0  0  0  0  0  0  0  0  0  0  0
   -2.0696    0.8194    0.0000 C   0  0  0  0  0  0  0  0  0  0  0  0
   -3.1538    1.8560    0.0000 N   0  0  0  0  0  0  0  0  0  0  0  0
   -4.4747    1.1452    0.0000 N   0  0  0  0  0  0  0  0  0  0  0  0
   -4.2068   -0.3307    0.0000 N   0  0  0  0  0  0  0  0  0  0  0  0
   -2.7204   -0.5321    0.0000 N   0  0  0  0  0  0  0  0  0  0  0  0
   -2.0096   -1.8530    0.0000 C   0  0  0  0  0  0  0  0  0  0  0  0
   -0.5232   -2.0543    0.0000 C   0  0  0  0  0  0  0  0  0  0  0  0
   -0.2553   -3.5302    0.0000 C   0  0  0  0  0  0  0  0  0  0  0  0
   -1.5762   -4.2410    0.0000 C   0  0  0  0  0  0  0  0  0  0  0  0
   -1.7776   -5.7274    0.0000 C   0  0  0  0  0  0  0  0  0  0  0  0
   -3.1655   -6.2963    0.0000 C   0  0  0  0  0  0  0  0  0  0  0  0
   -3.3669   -7.7827    0.0000 C   0  0  0  0  0  0  0  0  0  0  0  0
   -2.1803   -8.7003    0.0000 C   0  0  0  0  0  0  0  0  0  0  0  0
   -0.7923   -8.1314    0.0000 C   0  0  0  0  0  0  0  0  0  0  0  0
   -0.5910   -6.6450    0.0000 C   0  0  0  0  0  0  0  0  0  0  0  0
    0.7970   -6.0762    0.0000 C   0  0  0  0  0  0  0  0  0  0  0  0
    1.9836   -6.9938    0.0000 C   0  0  0  0  0  0  0  0  0  0  0  0
    3.3715   -6.4249    0.0000 C   0  0  0  0  0  0  0  0  0  0  0  0
    3.5729   -4.9385    0.0000 C   0  0  0  0  0  0  0  0  0  0  0  0
    2.3863   -4.0209    0.0000 C   0  0  0  0  0  0  0  0  0  0  0  0
    0.9983   -4.5898    0.0000 C   0  0  0  0  0  0  0  0  0  0  0  0
   -2.6604   -3.2044    0.0000 C   0  0  0  0  0  0  0  0  0  0  0  0
   -4.1363   -3.4723    0.0000 O   0  0  0  0  0  0  0  0  0  0  0  0
    2.2948    9.2647    0.0000 N   0  0  0  0  0  0  0  0  0  0  0  0
    1.8957   10.7107    0.0000 C   0  0  0  0  0  0  0  0  0  0  0  0
    3.0253   11.6976    0.0000 O   0  0  0  0  0  0  0  0  0  0  0  0
    0.5164   11.3002    0.0000 N   0  0  0  0  0  0  0  0  0  0  0  0
  1  2  1  0
  2  3  2  0
  3  4  1  0
  4  5  2  0
  5  6  1  0
  6  7  2  0
  7  8  1  0
  8  9  2  0
  9 10  1  0
 10 11  1  0
 11 12  2  0
 12 13  1  0
 13 14  2  0
 14 15  1  0
 15 16  1  0
 16 17  1  0
 17 18  1  0
 18 19  1  0
 18 20  1  0
 20 21  2  0
 20 22  1  0
 22 23  1  0
 23 24  2  0
 24 25  1  0
 25 26  2  0
 26 27  1  0
 27 28  1  0
 28 29  2  0
 29 30  1  0
 30 31  2  0
 31 32  1  0
 32 33  2  0
 33 34  1  0
 34 35  2  0
 35 36  1  0
 36 37  2  0
 37 38  1  0
 38 39  2  0
 39 40  1  0
 40 41  2  0
 41 42  1  0
 42 43  2  0
 31 44  1  0
 44 45  2  0
  5 46  1  0
 46 47  1  0
 47 48  2  0
 47 49  1  0
 49  2  1  0
 10  6  1  0
 15 11  1  0
 22 16  1  0
 27 23  1  0
 44 28  1  0
 37 32  1  0
 43 38  1  0
M  END
>  <Title>  (457) 
idAAROgen8

$$$$

     RDKit          2D

 10 10  0  0  0  0  0  0  0  0999 V2000
    4.2098   -1.2990    0.0000 C   0  0  0  0  0  0  0  0  0  0  0  0
    3.4598   -0.0000    0.0000 O   0  0  0  0  0  0  0  0  0  0  0  0
    1.9598    0.0000    0.0000 C   0  0  0  0  0  0  0  0  0  0  0  0
    1.3858   -1.3858    0.0000 C   0  0  0  0  0  0  0  0  0  0  0  0
   -0.0000   -1.9598    0.0000 C   0  0  0  0  0  0  0  0  0  0  0  0
   -1.3858   -1.3858    0.0000 C   0  0  0  0  0  0  0  0  0  0  0  0
   -1.9598    0.0000    0.0000 C   0  0  0  0  0  0  0  0  0  0  0  0
   -1.3858    1.3858    0.0000 C   0  0  0  0  0  0  0  0  0  0  0  0
    0.0000    1.9598    0.0000 C   0  0  0  0  0  0  0  0  0  0  0  0
    1.3858    1.3858    0.0000 C   0  0  0  0  0  0  0  0  0  0  0  0
  1  2  1  0
  2  3  1  0
  3  4  2  0
  4  5  1  0
  5  6  2  0
  6  7  1  0
  7  8  2  0
  8  9  1  0
  9 10  2  0
 10  3  1  0
M  END
>  <Title>  (458) 
idAARPgen8

$$$$

     RDKit          2D

 16 17  0  0  0  0  0  0  0  0999 V2000
   -0.9183    4.4095    0.0000 N   0  0  0  0  0  0  0  0  0  0  0  0
    0.3808    3.6595    0.0000 N   0  0  0  0  0  0  0  0  0  0  0  0
    1.6798    4.4095    0.0000 C   0  0  0  0  0  0  0  0  0  0  0  0
    1.6798    5.9095    0.0000 C   0  0  0  0  0  0  0  0  0  0  0  0
    2.9789    6.6595    0.0000 O   0  0  0  0  0  0  0  0  0  0  0  0
    2.9789    3.6595    0.0000 C   0  0  0  0  0  0  0  0  0  0  0  0
    2.9789    2.1595    0.0000 C   0  0  0  0  0  0  0  0  0  0  0  0
    1.6798    1.4095    0.0000 C   0  0  0  0  0  0  0  0  0  0  0  0
    2.1929    0.0000    0.0000 C   0  0  0  0  0  0  0  0  0  0  0  0
    1.6798   -1.4095    0.0000 C   0  0  0  0  0  0  0  0  0  0  0  0
    0.3808   -2.1595    0.0000 C   0  0  0  0  0  0  0  0  0  0  0  0
   -1.0964   -1.8991    0.0000 C   0  0  0  0  0  0  0  0  0  0  0  0
   -2.0606   -0.7500    0.0000 C   0  0  0  0  0  0  0  0  0  0  0  0
   -2.0606    0.7500    0.0000 C   0  0  0  0  0  0  0  0  0  0  0  0
   -1.0964    1.8991    0.0000 C   0  0  0  0  0  0  0  0  0  0  0  0
    0.3808    2.1595    0.0000 C   0  0  0  0  0  0  0  0  0  0  0  0
  1  2  1  0
  2  3  1  0
  3  4  1  0
  4  5  1  0
  3  6  2  0
  6  7  1  0
  7  8  2  0
  8  9  1  0
  9 10  2  0
 10 11  1  0
 11 12  2  0
 12 13  1  0
 13 14  2  0
 14 15  1  0
 15 16  2  0
 16  2  1  0
 16  8  1  0
M  END
>  <Title>  (459) 
idAARQgen8

$$$$

     RDKit          2D

 14 14  0  0  0  0  0  0  0  0999 V2000
    4.6339    0.0000    0.0000 O   0  0  0  0  0  0  0  0  0  0  0  0
    3.1339    0.0000    0.0000 C   0  0  0  0  0  0  0  0  0  0  0  0
    2.7750    1.4564    0.0000 C   0  0  0  0  0  0  0  0  0  0  0  0
    1.7803    2.5792    0.0000 C   0  0  0  0  0  0  0  0  0  0  0  0
    0.3778    3.1111    0.0000 C   0  0  0  0  0  0  0  0  0  0  0  0
   -1.1113    2.9303    0.0000 C   0  0  0  0  0  0  0  0  0  0  0  0
   -2.3458    2.0782    0.0000 C   0  0  0  0  0  0  0  0  0  0  0  0
   -3.0429    0.7500    0.0000 C   0  0  0  0  0  0  0  0  0  0  0  0
   -3.0429   -0.7500    0.0000 C   0  0  0  0  0  0  0  0  0  0  0  0
   -2.3458   -2.0782    0.0000 C   0  0  0  0  0  0  0  0  0  0  0  0
   -1.1113   -2.9303    0.0000 C   0  0  0  0  0  0  0  0  0  0  0  0
    0.3778   -3.1111    0.0000 C   0  0  0  0  0  0  0  0  0  0  0  0
    1.7803   -2.5792    0.0000 C   0  0  0  0  0  0  0  0  0  0  0  0
    2.7750   -1.4564    0.0000 C   0  0  0  0  0  0  0  0  0  0  0  0
  1  2  1  0
  2  3  2  0
  3  4  1  0
  4  5  2  0
  5  6  2  0
  6  7  2  0
  7  8  2  0
  8  9  1  0
  9 10  2  0
 10 11  1  0
 11 12  2  0
 12 13  1  0
 13 14  2  0
 14  2  1  0
M  END
>  <Title>  (460) 
idAARRgen8

$$$$

     RDKit          2D

 16 16  0  0  0  0  0  0  0  0999 V2000
    5.6205   -1.2990    0.0000 C   0  0  0  0  0  0  0  0  0  0  0  0
    4.8705    0.0000    0.0000 O   0  0  0  0  0  0  0  0  0  0  0  0
    3.3705    0.0000    0.0000 C   0  0  0  0  0  0  0  0  0  0  0  0
    3.0367   -1.4624    0.0000 C   0  0  0  0  0  0  0  0  0  0  0  0
    2.1015   -2.6351    0.0000 C   0  0  0  0  0  0  0  0  0  0  0  0
    0.7500   -3.2860    0.0000 C   0  0  0  0  0  0  0  0  0  0  0  0
   -0.7500   -3.2860    0.0000 C   0  0  0  0  0  0  0  0  0  0  0  0
   -2.1015   -2.6351    0.0000 C   0  0  0  0  0  0  0  0  0  0  0  0
   -3.0367   -1.4624    0.0000 C   0  0  0  0  0  0  0  0  0  0  0  0
   -3.3705    0.0000    0.0000 C   0  0  0  0  0  0  0  0  0  0  0  0
   -3.0367    1.4624    0.0000 C   0  0  0  0  0  0  0  0  0  0  0  0
   -2.1015    2.6351    0.0000 C   0  0  0  0  0  0  0  0  0  0  0  0
   -0.7500    3.2860    0.0000 C   0  0  0  0  0  0  0  0  0  0  0  0
    0.7500    3.2860    0.0000 C   0  0  0  0  0  0  0  0  0  0  0  0
    2.1015    2.6351    0.0000 C   0  0  0  0  0  0  0  0  0  0  0  0
    3.0367    1.4624    0.0000 N   0  0  0  0  0  0  0  0  0  0  0  0
  1  2  1  0
  2  3  1  0
  3  4  2  0
  4  5  1  0
  5  6  2  0
  6  7  1  0
  7  8  2  0
  8  9  1  0
  9 10  2  0
 10 11  1  0
 11 12  2  0
 12 13  1  0
 13 14  2  0
 14 15  1  0
 15 16  2  0
 16  3  1  0
M  END
>  <Title>  (461) 
idAARSgen8

$$$$

     RDKit          2D

 40 45  0  0  0  0  0  0  0  0999 V2000
   -7.1746    1.2649    0.0000 C   0  0  0  0  0  0  0  0  0  0  0  0
   -7.1073    2.7634    0.0000 C   0  0  0  0  0  0  0  0  0  0  0  0
   -5.7759    3.4543    0.0000 C   0  0  0  0  0  0  0  0  0  0  0  0
   -5.7086    4.9528    0.0000 C   0  0  0  0  0  0  0  0  0  0  0  0
   -6.9727    5.7604    0.0000 C   0  0  0  0  0  0  0  0  0  0  0  0
   -6.9054    7.2588    0.0000 C   0  0  0  0  0  0  0  0  0  0  0  0
   -8.0782    8.1941    0.0000 N   0  0  0  0  0  0  0  0  0  0  0  0
   -7.5511    9.5984    0.0000 N   0  0  0  0  0  0  0  0  0  0  0  0
   -6.0526    9.5311    0.0000 N   0  0  0  0  0  0  0  0  0  0  0  0
   -5.6536    8.0852    0.0000 N   0  0  0  0  0  0  0  0  0  0  0  0
   -4.2492    7.5581    0.0000 C   0  0  0  0  0  0  0  0  0  0  0  0
   -4.0035    6.0784    0.0000 C   0  0  0  0  0  0  0  0  0  0  0  0
   -2.5991    5.5513    0.0000 C   0  0  0  0  0  0  0  0  0  0  0  0
   -1.4405    6.5040    0.0000 C   0  0  0  0  0  0  0  0  0  0  0  0
   -0.0362    5.9769    0.0000 C   0  0  0  0  0  0  0  0  0  0  0  0
    1.1225    6.9296    0.0000 O   0  0  0  0  0  0  0  0  0  0  0  0
    0.2096    4.4972    0.0000 N   0  0  0  0  0  0  0  0  0  0  0  0
    1.6139    3.9701    0.0000 C   0  0  0  0  0  0  0  0  0  0  0  0
    2.8658    4.7965    0.0000 N   0  0  0  0  0  0  0  0  0  0  0  0
    4.0385    3.8613    0.0000 N   0  0  0  0  0  0  0  0  0  0  0  0
    3.5115    2.4569    0.0000 N   0  0  0  0  0  0  0  0  0  0  0  0
    2.0130    2.5242    0.0000 N   0  0  0  0  0  0  0  0  0  0  0  0
    1.0777    1.3515    0.0000 C   0  0  0  0  0  0  0  0  0  0  0  0
    1.7286    0.0000    0.0000 C   0  0  0  0  0  0  0  0  0  0  0  0
    1.0777   -1.3515    0.0000 C   0  0  0  0  0  0  0  0  0  0  0  0
   -0.3846   -1.6852    0.0000 C   0  0  0  0  0  0  0  0  0  0  0  0
   -0.7184   -3.1476    0.0000 C   0  0  0  0  0  0  0  0  0  0  0  0
   -2.1518   -3.5898    0.0000 C   0  0  0  0  0  0  0  0  0  0  0  0
   -2.4856   -5.0522    0.0000 C   0  0  0  0  0  0  0  0  0  0  0  0
   -1.3860   -6.0724    0.0000 C   0  0  0  0  0  0  0  0  0  0  0  0
    0.0474   -5.6303    0.0000 C   0  0  0  0  0  0  0  0  0  0  0  0
    0.3812   -4.1679    0.0000 C   0  0  0  0  0  0  0  0  0  0  0  0
   -1.5574   -0.7500    0.0000 C   0  0  0  0  0  0  0  0  0  0  0  0
   -1.5574    0.7500    0.0000 N   0  0  0  0  0  0  0  0  0  0  0  0
   -0.3846    1.6852    0.0000 C   0  0  0  0  0  0  0  0  0  0  0  0
   -1.6862    7.9837    0.0000 C   0  0  0  0  0  0  0  0  0  0  0  0
   -3.0906    8.5108    0.0000 C   0  0  0  0  0  0  0  0  0  0  0  0
   -8.3041    5.0694    0.0000 C   0  0  0  0  0  0  0  0  0  0  0  0
   -9.5682    5.8769    0.0000 O   0  0  0  0  0  0  0  0  0  0  0  0
   -8.3714    3.5709    0.0000 N   0  0  0  0  0  0  0  0  0  0  0  0
  1  2  1  0
  2  3  2  0
  3  4  1  0
  4  5  2  0
  5  6  1  0
  6  7  2  0
  7  8  1  0
  8  9  2  0
  9 10  1  0
 10 11  1  0
 11 12  2  0
 12 13  1  0
 13 14  2  0
 14 15  1  0
 15 16  2  0
 15 17  1  0
 17 18  1  0
 18 19  2  0
 19 20  1  0
 20 21  2  0
 21 22  1  0
 22 23  1  0
 23 24  1  0
 24 25  2  0
 25 26  1  0
 26 27  1  0
 27 28  2  0
 28 29  1  0
 29 30  2  0
 30 31  1  0
 31 32  2  0
 26 33  2  0
 33 34  1  0
 34 35  1  0
 14 36  1  0
 36 37  2  0
  5 38  1  0
 38 39  2  0
 38 40  1  0
 40  2  1  0
 10  6  1  0
 37 11  1  0
 22 18  1  0
 35 23  1  0
 32 27  1  0
M  END
>  <Title>  (462) 
idAARTgen8

$$$$

     RDKit          2D

 45 49  0  0  0  0  0  0  0  0999 V2000
   -0.2442  -15.0930    0.0000 C   0  0  0  0  0  0  0  0  0  0  0  0
    0.9458  -14.1798    0.0000 O   0  0  0  0  0  0  0  0  0  0  0  0
    0.7500  -12.6927    0.0000 C   0  0  0  0  0  0  0  0  0  0  0  0
    2.1989  -12.3044    0.0000 C   0  0  0  0  0  0  0  0  0  0  0  0
    3.4979  -11.5544    0.0000 C   0  0  0  0  0  0  0  0  0  0  0  0
    4.5586  -10.4938    0.0000 C   0  0  0  0  0  0  0  0  0  0  0  0
    5.3086   -9.1947    0.0000 C   0  0  0  0  0  0  0  0  0  0  0  0
    5.6968   -7.7459    0.0000 C   0  0  0  0  0  0  0  0  0  0  0  0
    5.6968   -6.2459    0.0000 C   0  0  0  0  0  0  0  0  0  0  0  0
    5.3086   -4.7970    0.0000 C   0  0  0  0  0  0  0  0  0  0  0  0
    4.5586   -3.4979    0.0000 C   0  0  0  0  0  0  0  0  0  0  0  0
    3.4979   -2.4373    0.0000 C   0  0  0  0  0  0  0  0  0  0  0  0
    2.1989   -1.6873    0.0000 C   0  0  0  0  0  0  0  0  0  0  0  0
    0.7500   -1.2990    0.0000 C   0  0  0  0  0  0  0  0  0  0  0  0
    1.5000    0.0000    0.0000 N   0  0  0  0  0  0  0  0  0  0  0  0
    0.7500    1.2990    0.0000 N   0  0  0  0  0  0  0  0  0  0  0  0
   -0.7500    1.2990    0.0000 N   0  0  0  0  0  0  0  0  0  0  0  0
   -1.5000    0.0000    0.0000 N   0  0  0  0  0  0  0  0  0  0  0  0
   -0.7500   -1.2990    0.0000 N   0  0  0  0  0  0  0  0  0  0  0  0
   -2.1989   -1.6873    0.0000 C   0  0  0  0  0  0  0  0  0  0  0  0
   -3.4979   -2.4373    0.0000 C   0  0  0  0  0  0  0  0  0  0  0  0
   -4.5586   -3.4979    0.0000 C   0  0  0  0  0  0  0  0  0  0  0  0
   -5.3086   -4.7970    0.0000 C   0  0  0  0  0  0  0  0  0  0  0  0
   -5.6968   -6.2459    0.0000 N   0  0  0  0  0  0  0  0  0  0  0  0
   -5.6968   -7.7459    0.0000 C   0  0  0  0  0  0  0  0  0  0  0  0
   -7.1840   -7.9416    0.0000 O   0  0  0  0  0  0  0  0  0  0  0  0
   -5.3086   -9.1947    0.0000 C   0  0  0  0  0  0  0  0  0  0  0  0
   -4.5586  -10.4938    0.0000 C   0  0  0  0  0  0  0  0  0  0  0  0
   -3.4979  -11.5544    0.0000 C   0  0  0  0  0  0  0  0  0  0  0  0
   -2.1989  -12.3044    0.0000 C   0  0  0  0  0  0  0  0  0  0  0  0
   -0.7500  -12.6927    0.0000 C   0  0  0  0  0  0  0  0  0  0  0  0
   -6.5373   -3.9366    0.0000 C   0  0  0  0  0  0  0  0  0  0  0  0
   -7.7953   -4.7536    0.0000 N   0  0  0  0  0  0  0  0  0  0  0  0
   -8.9610   -3.8096    0.0000 N   0  0  0  0  0  0  0  0  0  0  0  0
   -8.4235   -2.4092    0.0000 N   0  0  0  0  0  0  0  0  0  0  0  0
   -6.9255   -2.4877    0.0000 N   0  0  0  0  0  0  0  0  0  0  0  0
   -6.2916   -1.1282    0.0000 C   0  0  0  0  0  0  0  0  0  0  0  0
   -6.7516    0.2995    0.0000 C   0  0  0  0  0  0  0  0  0  0  0  0
   -5.9221    1.5493    0.0000 C   0  0  0  0  0  0  0  0  0  0  0  0
   -4.4278    1.6800    0.0000 C   0  0  0  0  0  0  0  0  0  0  0  0
   -3.8973    3.0830    0.0000 C   0  0  0  0  0  0  0  0  0  0  0  0
   -3.3939    0.5932    0.0000 C   0  0  0  0  0  0  0  0  0  0  0  0
   -3.4833   -0.8826    0.0000 C   0  0  0  0  0  0  0  0  0  0  0  0
   -4.9322   -0.4943    0.0000 C   0  0  0  0  0  0  0  0  0  0  0  0
   -5.0629    1.0000    0.0000 O   0  0  0  0  0  0  0  0  0  0  0  0
  1  2  1  0
  2  3  1  0
  3  4  2  0
  4  5  1  0
  5  6  2  0
  6  7  1  0
  7  8  2  0
  8  9  1  0
  9 10  2  0
 10 11  1  0
 11 12  2  0
 12 13  1  0
 13 14  2  0
 14 15  1  0
 15 16  2  0
 16 17  1  0
 17 18  2  0
 18 19  1  0
 19 20  1  0
 20 21  2  0
 21 22  1  0
 22 23  2  0
 23 24  1  0
 24 25  1  0
 25 26  2  0
 25 27  1  0
 27 28  1  0
 28 29  1  0
 29 30  1  0
 30 31  2  0
 23 32  1  0
 32 33  2  0
 33 34  1  0
 34 35  2  0
 35 36  1  0
 36 37  1  0
 37 38  2  0
 38 39  1  0
 39 40  2  0
 40 41  1  0
 40 42  1  0
 42 43  2  0
 43 44  1  0
 44 45  2  0
 31  3  1  0
 36 32  1  0
 44 37  1  0
 19 14  1  0
 43 20  1  0
M  END
>  <Title>  (463) 
idAARUgen8

$$$$

     RDKit          2D

 36 41  0  0  0  0  0  0  0  0999 V2000
    3.0000   -0.0000    0.0000 C   0  0  0  0  0  0  0  0  0  0  0  0
    1.5000   -0.0000    0.0000 C   0  0  0  0  0  0  0  0  0  0  0  0
    0.7500   -1.2990    0.0000 C   0  0  0  0  0  0  0  0  0  0  0  0
   -0.7500   -1.2990    0.0000 C   0  0  0  0  0  0  0  0  0  0  0  0
   -1.5000   -0.0000    0.0000 C   0  0  0  0  0  0  0  0  0  0  0  0
   -3.0000   -0.0000    0.0000 C   0  0  0  0  0  0  0  0  0  0  0  0
   -3.8817   -1.2135    0.0000 N   0  0  0  0  0  0  0  0  0  0  0  0
   -5.3083   -0.7500    0.0000 N   0  0  0  0  0  0  0  0  0  0  0  0
   -5.3083    0.7500    0.0000 N   0  0  0  0  0  0  0  0  0  0  0  0
   -3.8817    1.2135    0.0000 N   0  0  0  0  0  0  0  0  0  0  0  0
   -3.4182    2.6401    0.0000 C   0  0  0  0  0  0  0  0  0  0  0  0
   -1.9509    2.9520    0.0000 O   0  0  0  0  0  0  0  0  0  0  0  0
   -1.4874    4.3786    0.0000 C   0  0  0  0  0  0  0  0  0  0  0  0
   -2.4911    5.4933    0.0000 C   0  0  0  0  0  0  0  0  0  0  0  0
   -3.9583    5.1814    0.0000 C   0  0  0  0  0  0  0  0  0  0  0  0
   -4.9620    6.2961    0.0000 C   0  0  0  0  0  0  0  0  0  0  0  0
   -6.4538    6.1393    0.0000 N   0  0  0  0  0  0  0  0  0  0  0  0
   -7.0639    7.5097    0.0000 N   0  0  0  0  0  0  0  0  0  0  0  0
   -5.9492    8.5134    0.0000 N   0  0  0  0  0  0  0  0  0  0  0  0
   -4.6502    7.7634    0.0000 N   0  0  0  0  0  0  0  0  0  0  0  0
   -4.4218    3.7548    0.0000 C   0  0  0  0  0  0  0  0  0  0  0  0
   -5.8891    3.4430    0.0000 C   0  0  0  0  0  0  0  0  0  0  0  0
   -7.0038    4.4467    0.0000 N   0  0  0  0  0  0  0  0  0  0  0  0
   -8.3028    3.6967    0.0000 N   0  0  0  0  0  0  0  0  0  0  0  0
   -7.9910    2.2294    0.0000 N   0  0  0  0  0  0  0  0  0  0  0  0
   -6.4992    2.0726    0.0000 N   0  0  0  0  0  0  0  0  0  0  0  0
   -5.7492    0.7736    0.0000 C   0  0  0  0  0  0  0  0  0  0  0  0
   -4.2492    0.7736    0.0000 C   0  0  0  0  0  0  0  0  0  0  0  0
   -3.4992   -0.5254    0.0000 C   0  0  0  0  0  0  0  0  0  0  0  0
   -4.2492   -1.8245    0.0000 C   0  0  0  0  0  0  0  0  0  0  0  0
   -3.4992   -3.1235    0.0000 C   0  0  0  0  0  0  0  0  0  0  0  0
   -5.7492   -1.8245    0.0000 C   0  0  0  0  0  0  0  0  0  0  0  0
   -6.4992   -3.1235    0.0000 O   0  0  0  0  0  0  0  0  0  0  0  0
   -6.4992   -0.5254    0.0000 N   0  0  0  0  0  0  0  0  0  0  0  0
   -0.7500    1.2990    0.0000 C   0  0  0  0  0  0  0  0  0  0  0  0
    0.7500    1.2990    0.0000 C   0  0  0  0  0  0  0  0  0  0  0  0
  1  2  1  0
  2  3  2  0
  3  4  1  0
  4  5  2  0
  5  6  1  0
  6  7  2  0
  7  8  1  0
  8  9  2  0
  9 10  1  0
 10 11  1  0
 11 12  1  0
 12 13  1  0
 13 14  1  0
 14 15  2  0
 15 16  1  0
 16 17  2  0
 17 18  1  0
 18 19  2  0
 19 20  1  0
 15 21  1  0
 21 22  1  0
 22 23  2  0
 23 24  1  0
 24 25  2  0
 25 26  1  0
 26 27  1  0
 27 28  2  0
 28 29  1  0
 29 30  2  0
 30 31  1  0
 30 32  1  0
 32 33  2  0
 32 34  1  0
  5 35  1  0
 35 36  2  0
 36  2  1  0
 10  6  1  0
 21 11  1  0
 26 22  1  0
 34 27  1  0
 20 16  1  0
M  END
>  <Title>  (464) 
idAARVgen8

$$$$

     RDKit          2D

 18 18  0  0  0  0  0  0  0  0999 V2000
    6.0944   -1.2990    0.0000 C   0  0  0  0  0  0  0  0  0  0  0  0
    5.3444    0.0000    0.0000 C   0  0  0  0  0  0  0  0  0  0  0  0
    3.8444    0.0000    0.0000 C   0  0  0  0  0  0  0  0  0  0  0  0
    3.5517   -1.4712    0.0000 C   0  0  0  0  0  0  0  0  0  0  0  0
    2.7184   -2.7184    0.0000 C   0  0  0  0  0  0  0  0  0  0  0  0
    1.4712   -3.5517    0.0000 C   0  0  0  0  0  0  0  0  0  0  0  0
   -0.0000   -3.8444    0.0000 C   0  0  0  0  0  0  0  0  0  0  0  0
   -1.4712   -3.5517    0.0000 C   0  0  0  0  0  0  0  0  0  0  0  0
   -2.7184   -2.7184    0.0000 C   0  0  0  0  0  0  0  0  0  0  0  0
   -3.5517   -1.4712    0.0000 C   0  0  0  0  0  0  0  0  0  0  0  0
   -3.8444    0.0000    0.0000 C   0  0  0  0  0  0  0  0  0  0  0  0
   -3.5517    1.4712    0.0000 C   0  0  0  0  0  0  0  0  0  0  0  0
   -2.7184    2.7184    0.0000 C   0  0  0  0  0  0  0  0  0  0  0  0
   -1.4712    3.5517    0.0000 C   0  0  0  0  0  0  0  0  0  0  0  0
    0.0000    3.8444    0.0000 C   0  0  0  0  0  0  0  0  0  0  0  0
    1.4712    3.5517    0.0000 C   0  0  0  0  0  0  0  0  0  0  0  0
    2.7184    2.7184    0.0000 C   0  0  0  0  0  0  0  0  0  0  0  0
    3.5517    1.4712    0.0000 C   0  0  0  0  0  0  0  0  0  0  0  0
  1  2  1  0
  2  3  1  0
  3  4  2  0
  4  5  1  0
  5  6  2  0
  6  7  1  0
  7  8  2  0
  8  9  1  0
  9 10  2  0
 10 11  1  0
 11 12  2  0
 12 13  1  0
 13 14  2  0
 14 15  1  0
 15 16  2  0
 16 17  1  0
 17 18  2  0
 18  3  1  0
M  END
>  <Title>  (465) 
idAARWgen8

$$$$

     RDKit          2D

 11 11  0  0  0  0  0  0  0  0999 V2000
    3.9271    0.0000    0.0000 C   0  0  0  0  0  0  0  0  0  0  0  0
    2.4271    0.0000    0.0000 C   0  0  0  0  0  0  0  0  0  0  0  0
    1.9635   -1.4266    0.0000 C   0  0  0  0  0  0  0  0  0  0  0  0
    0.7500   -2.3083    0.0000 C   0  0  0  0  0  0  0  0  0  0  0  0
   -0.7500   -2.3083    0.0000 C   0  0  0  0  0  0  0  0  0  0  0  0
   -1.9635   -1.4266    0.0000 C   0  0  0  0  0  0  0  0  0  0  0  0
   -2.4271    0.0000    0.0000 C   0  0  0  0  0  0  0  0  0  0  0  0
   -1.9635    1.4266    0.0000 C   0  0  0  0  0  0  0  0  0  0  0  0
   -0.7500    2.3083    0.0000 C   0  0  0  0  0  0  0  0  0  0  0  0
    0.7500    2.3083    0.0000 C   0  0  0  0  0  0  0  0  0  0  0  0
    1.9635    1.4266    0.0000 C   0  0  0  0  0  0  0  0  0  0  0  0
  1  2  1  0
  2  3  2  0
  3  4  1  0
  4  5  2  0
  5  6  1  0
  6  7  1  0
  7  8  1  0
  8  9  1  0
  9 10  1  0
 10 11  1  0
 11  2  1  0
M  END
>  <Title>  (466) 
idAARXgen8

$$$$

     RDKit          2D

 39 39  0  0  0  0  0  0  0  0999 V2000
   10.5822    0.0000    0.0000 O   0  0  0  0  0  0  0  0  0  0  0  0
    9.0822    0.0000    0.0000 C   0  0  0  0  0  0  0  0  0  0  0  0
    8.9583   -1.4949    0.0000 C   0  0  0  0  0  0  0  0  0  0  0  0
    8.5901   -2.9490    0.0000 C   0  0  0  0  0  0  0  0  0  0  0  0
    7.9875   -4.3226    0.0000 C   0  0  0  0  0  0  0  0  0  0  0  0
    7.1671   -5.5784    0.0000 C   0  0  0  0  0  0  0  0  0  0  0  0
    6.1512   -6.6820    0.0000 C   0  0  0  0  0  0  0  0  0  0  0  0
    4.9675   -7.6033    0.0000 C   0  0  0  0  0  0  0  0  0  0  0  0
    3.6483   -8.3172    0.0000 C   0  0  0  0  0  0  0  0  0  0  0  0
    2.2295   -8.8043    0.0000 C   0  0  0  0  0  0  0  0  0  0  0  0
    0.7500   -9.0512    0.0000 C   0  0  0  0  0  0  0  0  0  0  0  0
   -0.7500   -9.0512    0.0000 C   0  0  0  0  0  0  0  0  0  0  0  0
   -2.2295   -8.8043    0.0000 C   0  0  0  0  0  0  0  0  0  0  0  0
   -3.6483   -8.3172    0.0000 C   0  0  0  0  0  0  0  0  0  0  0  0
   -4.9675   -7.6033    0.0000 C   0  0  0  0  0  0  0  0  0  0  0  0
   -6.1512   -6.6820    0.0000 C   0  0  0  0  0  0  0  0  0  0  0  0
   -7.1671   -5.5784    0.0000 C   0  0  0  0  0  0  0  0  0  0  0  0
   -7.9875   -4.3226    0.0000 C   0  0  0  0  0  0  0  0  0  0  0  0
   -8.5901   -2.9490    0.0000 C   0  0  0  0  0  0  0  0  0  0  0  0
   -8.9583   -1.4949    0.0000 C   0  0  0  0  0  0  0  0  0  0  0  0
   -9.0822    0.0000    0.0000 C   0  0  0  0  0  0  0  0  0  0  0  0
   -8.9583    1.4949    0.0000 C   0  0  0  0  0  0  0  0  0  0  0  0
   -8.5901    2.9490    0.0000 C   0  0  0  0  0  0  0  0  0  0  0  0
   -7.9875    4.3226    0.0000 C   0  0  0  0  0  0  0  0  0  0  0  0
   -7.1671    5.5784    0.0000 C   0  0  0  0  0  0  0  0  0  0  0  0
   -6.1512    6.6820    0.0000 C   0  0  0  0  0  0  0  0  0  0  0  0
   -4.9675    7.6033    0.0000 C   0  0  0  0  0  0  0  0  0  0  0  0
   -3.6483    8.3172    0.0000 C   0  0  0  0  0  0  0  0  0  0  0  0
   -2.2295    8.8043    0.0000 C   0  0  0  0  0  0  0  0  0  0  0  0
   -0.7500    9.0512    0.0000 C   0  0  0  0  0  0  0  0  0  0  0  0
    0.7500    9.0512    0.0000 C   0  0  0  0  0  0  0  0  0  0  0  0
    2.2295    8.8043    0.0000 C   0  0  0  0  0  0  0  0  0  0  0  0
    3.6483    8.3172    0.0000 C   0  0  0  0  0  0  0  0  0  0  0  0
    4.9675    7.6033    0.0000 C   0  0  0  0  0  0  0  0  0  0  0  0
    6.1512    6.6820    0.0000 C   0  0  0  0  0  0  0  0  0  0  0  0
    7.1671    5.5784    0.0000 C   0  0  0  0  0  0  0  0  0  0  0  0
    7.9875    4.3226    0.0000 C   0  0  0  0  0  0  0  0  0  0  0  0
    8.5901    2.9490    0.0000 C   0  0  0  0  0  0  0  0  0  0  0  0
    8.9583    1.4949    0.0000 C   0  0  0  0  0  0  0  0  0  0  0  0
  1  2  1  0
  2  3  2  0
  3  4  1  0
  4  5  2  0
  5  6  1  0
  6  7  2  0
  7  8  1  0
  8  9  2  0
  9 10  1  0
 10 11  2  0
 11 12  1  0
 12 13  2  0
 13 14  1  0
 14 15  2  0
 15 16  1  0
 16 17  2  0
 17 18  1  0
 18 19  2  0
 19 20  1  0
 20 21  2  0
 21 22  1  0
 22 23  2  0
 23 24  1  0
 24 25  2  0
 25 26  1  0
 26 27  2  0
 27 28  1  0
 28 29  2  0
 29 30  1  0
 30 31  2  0
 31 32  1  0
 32 33  2  0
 33 34  1  0
 34 35  2  0
 35 36  1  0
 36 37  2  0
 37 38  1  0
 38 39  2  0
 39  2  1  0
M  END
>  <Title>  (467) 
idAARYgen8

$$$$

     RDKit          2D

 15 15  0  0  0  0  0  0  0  0999 V2000
    4.8705    0.0000    0.0000 O   0  0  0  0  0  0  0  0  0  0  0  0
    3.3705    0.0000    0.0000 C   0  0  0  0  0  0  0  0  0  0  0  0
    3.0367   -1.4624    0.0000 C   0  0  0  0  0  0  0  0  0  0  0  0
    2.1015   -2.6351    0.0000 C   0  0  0  0  0  0  0  0  0  0  0  0
    0.7500   -3.2860    0.0000 C   0  0  0  0  0  0  0  0  0  0  0  0
   -0.7500   -3.2860    0.0000 C   0  0  0  0  0  0  0  0  0  0  0  0
   -2.1015   -2.6351    0.0000 C   0  0  0  0  0  0  0  0  0  0  0  0
   -3.0367   -1.4624    0.0000 C   0  0  0  0  0  0  0  0  0  0  0  0
   -3.3705    0.0000    0.0000 C   0  0  0  0  0  0  0  0  0  0  0  0
   -3.0367    1.4624    0.0000 C   0  0  0  0  0  0  0  0  0  0  0  0
   -2.1015    2.6351    0.0000 C   0  0  0  0  0  0  0  0  0  0  0  0
   -0.7500    3.2860    0.0000 C   0  0  0  0  0  0  0  0  0  0  0  0
    0.7500    3.2860    0.0000 C   0  0  0  0  0  0  0  0  0  0  0  0
    2.1015    2.6351    0.0000 C   0  0  0  0  0  0  0  0  0  0  0  0
    3.0367    1.4624    0.0000 C   0  0  0  0  0  0  0  0  0  0  0  0
  1  2  1  0
  2  3  2  0
  3  4  1  0
  4  5  2  0
  5  6  1  0
  6  7  2  0
  7  8  1  0
  8  9  2  0
  9 10  1  0
 10 11  2  0
 11 12  1  0
 12 13  2  0
 13 14  1  0
 14 15  2  0
 15  2  1  0
M  END
>  <Title>  (468) 
idAARZgen8

$$$$

     RDKit          2D

 38 43  0  0  0  0  0  0  0  0999 V2000
   -4.0234    5.6340    0.0000 C   0  0  0  0  0  0  0  0  0  0  0  0
   -2.5775    6.0330    0.0000 C   0  0  0  0  0  0  0  0  0  0  0  0
   -2.2001    7.4848    0.0000 C   0  0  0  0  0  0  0  0  0  0  0  0
   -0.7542    7.8839    0.0000 C   0  0  0  0  0  0  0  0  0  0  0  0
    0.3144    6.8312    0.0000 C   0  0  0  0  0  0  0  0  0  0  0  0
    1.7603    7.2302    0.0000 C   0  0  0  0  0  0  0  0  0  0  0  0
    2.2874    8.6346    0.0000 N   0  0  0  0  0  0  0  0  0  0  0  0
    3.7859    8.5673    0.0000 N   0  0  0  0  0  0  0  0  0  0  0  0
    4.1849    7.1213    0.0000 N   0  0  0  0  0  0  0  0  0  0  0  0
    2.9331    6.2950    0.0000 N   0  0  0  0  0  0  0  0  0  0  0  0
    2.8658    4.7965    0.0000 C   0  0  0  0  0  0  0  0  0  0  0  0
    4.0385    3.8613    0.0000 C   0  0  0  0  0  0  0  0  0  0  0  0
    3.5115    2.4569    0.0000 C   0  0  0  0  0  0  0  0  0  0  0  0
    2.0130    2.5242    0.0000 C   0  0  0  0  0  0  0  0  0  0  0  0
    1.0777    1.3515    0.0000 C   0  0  0  0  0  0  0  0  0  0  0  0
   -0.3846    1.6852    0.0000 C   0  0  0  0  0  0  0  0  0  0  0  0
   -1.5574    0.7500    0.0000 C   0  0  0  0  0  0  0  0  0  0  0  0
   -1.5574   -0.7500    0.0000 N   0  0  0  0  0  0  0  0  0  0  0  0
   -0.3846   -1.6852    0.0000 N   0  0  0  0  0  0  0  0  0  0  0  0
    1.0777   -1.3515    0.0000 N   0  0  0  0  0  0  0  0  0  0  0  0
    1.7286    0.0000    0.0000 N   0  0  0  0  0  0  0  0  0  0  0  0
    3.2286    0.0000    0.0000 C   0  0  0  0  0  0  0  0  0  0  0  0
    3.9786    1.2990    0.0000 C   0  0  0  0  0  0  0  0  0  0  0  0
    5.4786    1.2990    0.0000 C   0  0  0  0  0  0  0  0  0  0  0  0
    6.2286    0.0000    0.0000 C   0  0  0  0  0  0  0  0  0  0  0  0
    5.4786   -1.2990    0.0000 C   0  0  0  0  0  0  0  0  0  0  0  0
    3.9786   -1.2990    0.0000 C   0  0  0  0  0  0  0  0  0  0  0  0
    3.2286   -2.5981    0.0000 C   0  0  0  0  0  0  0  0  0  0  0  0
    3.9786   -3.8971    0.0000 C   0  0  0  0  0  0  0  0  0  0  0  0
    3.2286   -5.1962    0.0000 C   0  0  0  0  0  0  0  0  0  0  0  0
    1.7286   -5.1962    0.0000 C   0  0  0  0  0  0  0  0  0  0  0  0
    0.9786   -3.8971    0.0000 C   0  0  0  0  0  0  0  0  0  0  0  0
    1.7286   -2.5981    0.0000 C   0  0  0  0  0  0  0  0  0  0  0  0
    1.6139    3.9701    0.0000 C   0  0  0  0  0  0  0  0  0  0  0  0
    0.2096    4.4972    0.0000 O   0  0  0  0  0  0  0  0  0  0  0  0
   -0.0630    5.3794    0.0000 N   0  0  0  0  0  0  0  0  0  0  0  0
   -1.5089    4.9804    0.0000 C   0  0  0  0  0  0  0  0  0  0  0  0
   -1.8863    3.5286    0.0000 O   0  0  0  0  0  0  0  0  0  0  0  0
  1  2  1  0
  2  3  2  0
  3  4  1  0
  4  5  2  0
  5  6  1  0
  6  7  2  0
  7  8  1  0
  8  9  2  0
  9 10  1  0
 10 11  1  0
 11 12  2  0
 12 13  1  0
 13 14  2  0
 14 15  1  0
 15 16  2  0
 16 17  1  0
 17 18  2  0
 18 19  1  0
 19 20  2  0
 20 21  1  0
 21 22  1  0
 22 23  2  0
 23 24  1  0
 24 25  2  0
 25 26  1  0
 26 27  2  0
 27 28  1  0
 28 29  2  0
 29 30  1  0
 30 31  2  0
 31 32  1  0
 32 33  2  0
 14 34  1  0
 34 35  2  0
  5 36  1  0
 36 37  1  0
 37 38  2  0
 37  2  1  0
 10  6  1  0
 34 11  1  0
 21 15  1  0
 27 22  1  0
 33 28  1  0
M  END
>  <Title>  (469) 
idAASAgen8

$$$$

     RDKit          2D

 36 40  0  0  0  0  0  0  0  0999 V2000
    3.2286   -0.0000    0.0000 C   0  0  0  0  0  0  0  0  0  0  0  0
    1.7286    0.0000    0.0000 C   0  0  0  0  0  0  0  0  0  0  0  0
    1.0777    1.3515    0.0000 C   0  0  0  0  0  0  0  0  0  0  0  0
   -0.3846    1.6852    0.0000 C   0  0  0  0  0  0  0  0  0  0  0  0
   -1.5574    0.7500    0.0000 C   0  0  0  0  0  0  0  0  0  0  0  0
   -2.9088    1.4008    0.0000 C   0  0  0  0  0  0  0  0  0  0  0  0
   -4.2297    0.6900    0.0000 N   0  0  0  0  0  0  0  0  0  0  0  0
   -5.3139    1.7266    0.0000 N   0  0  0  0  0  0  0  0  0  0  0  0
   -4.6631    3.0781    0.0000 N   0  0  0  0  0  0  0  0  0  0  0  0
   -3.1767    2.8767    0.0000 N   0  0  0  0  0  0  0  0  0  0  0  0
   -2.1401    3.9609    0.0000 C   0  0  0  0  0  0  0  0  0  0  0  0
   -0.6829    3.6053    0.0000 C   0  0  0  0  0  0  0  0  0  0  0  0
    0.3537    4.6895    0.0000 C   0  0  0  0  0  0  0  0  0  0  0  0
   -0.0669    6.1293    0.0000 C   0  0  0  0  0  0  0  0  0  0  0  0
   -1.5241    6.4849    0.0000 C   0  0  0  0  0  0  0  0  0  0  0  0
   -2.5607    5.4007    0.0000 C   0  0  0  0  0  0  0  0  0  0  0  0
   -4.0180    5.7563    0.0000 C   0  0  0  0  0  0  0  0  0  0  0  0
   -5.1622    4.7864    0.0000 N   0  0  0  0  0  0  0  0  0  0  0  0
   -6.4382    5.5750    0.0000 N   0  0  0  0  0  0  0  0  0  0  0  0
   -6.0826    7.0322    0.0000 N   0  0  0  0  0  0  0  0  0  0  0  0
   -4.5868    7.1443    0.0000 N   0  0  0  0  0  0  0  0  0  0  0  0
   -3.7983    8.4203    0.0000 C   0  0  0  0  0  0  0  0  0  0  0  0
   -2.2989    8.3754    0.0000 C   0  0  0  0  0  0  0  0  0  0  0  0
   -1.5104    9.6515    0.0000 C   0  0  0  0  0  0  0  0  0  0  0  0
   -2.2212   10.9724    0.0000 C   0  0  0  0  0  0  0  0  0  0  0  0
   -1.4327   12.2484    0.0000 C   0  0  0  0  0  0  0  0  0  0  0  0
   -2.1435   13.5693    0.0000 O   0  0  0  0  0  0  0  0  0  0  0  0
    0.0666   12.2035    0.0000 N   0  0  0  0  0  0  0  0  0  0  0  0
    0.8552   13.4795    0.0000 O   0  0  0  0  0  0  0  0  0  0  0  0
   -3.7206   11.0172    0.0000 N   0  0  0  0  0  0  0  0  0  0  0  0
   -4.5091    9.7412    0.0000 C   0  0  0  0  0  0  0  0  0  0  0  0
   -6.0084    9.7861    0.0000 O   0  0  0  0  0  0  0  0  0  0  0  0
   -1.5574   -0.7500    0.0000 N   0  0  0  0  0  0  0  0  0  0  0  0
   -0.3846   -1.6852    0.0000 C   0  0  0  0  0  0  0  0  0  0  0  0
   -0.7184   -3.1476    0.0000 O   0  0  0  0  0  0  0  0  0  0  0  0
    1.0777   -1.3515    0.0000 C   0  0  0  0  0  0  0  0  0  0  0  0
  1  2  1  0
  2  3  2  0
  3  4  1  0
  4  5  2  0
  5  6  1  0
  6  7  2  0
  7  8  1  0
  8  9  2  0
  9 10  1  0
 10 11  1  0
 11 12  1  0
 12 13  1  0
 13 14  1  0
 14 15  1  0
 15 16  1  0
 16 17  1  0
 17 18  2  0
 18 19  1  0
 19 20  2  0
 20 21  1  0
 21 22  1  0
 22 23  2  0
 23 24  1  0
 24 25  2  0
 25 26  1  0
 26 27  2  0
 26 28  1  0
 28 29  1  0
 25 30  1  0
 30 31  1  0
 31 32  2  0
  5 33  1  0
 33 34  1  0
 34 35  2  0
 34 36  1  0
 36  2  1  0
 10  6  1  0
 16 11  1  0
 21 17  1  0
 31 22  1  0
M  END
>  <Title>  (470) 
idAASBgen8

$$$$

     RDKit          2D

 13 13  0  0  0  0  0  0  0  0999 V2000
    3.9271    0.0000    0.0000 C   0  0  0  0  0  0  0  0  0  0  0  0
    2.4271    0.0000    0.0000 C   0  0  0  0  0  0  0  0  0  0  0  0
    1.9635   -1.4266    0.0000 C   0  0  0  0  0  0  0  0  0  0  0  0
    0.7500   -2.3083    0.0000 C   0  0  0  0  0  0  0  0  0  0  0  0
   -0.7500   -2.3083    0.0000 C   0  0  0  0  0  0  0  0  0  0  0  0
   -1.9635   -1.4266    0.0000 C   0  0  0  0  0  0  0  0  0  0  0  0
   -2.4271    0.0000    0.0000 C   0  0  0  0  0  0  0  0  0  0  0  0
   -3.9271    0.0000    0.0000 N   0  0  0  0  0  0  0  0  0  0  0  0
   -1.9635    1.4266    0.0000 C   0  0  0  0  0  0  0  0  0  0  0  0
   -3.1771    2.3083    0.0000 C   0  0  0  0  0  0  0  0  0  0  0  0
   -0.7500    2.3083    0.0000 C   0  0  0  0  0  0  0  0  0  0  0  0
    0.7500    2.3083    0.0000 C   0  0  0  0  0  0  0  0  0  0  0  0
    1.9635    1.4266    0.0000 C   0  0  0  0  0  0  0  0  0  0  0  0
  1  2  1  0
  2  3  2  0
  3  4  1  0
  4  5  2  0
  5  6  1  0
  6  7  2  0
  7  8  1  0
  7  9  1  0
  9 10  1  0
  9 11  2  0
 11 12  1  0
 12 13  2  0
 13  2  1  0
M  END
>  <Title>  (471) 
idAASCgen8

$$$$

     RDKit          2D

 20 21  0  0  0  0  0  0  0  0999 V2000
    5.6697    6.0249    0.0000 C   0  0  0  0  0  0  0  0  0  0  0  0
    4.2000    5.7248    0.0000 O   0  0  0  0  0  0  0  0  0  0  0  0
    3.7250    4.3020    0.0000 C   0  0  0  0  0  0  0  0  0  0  0  0
    4.7197    3.1793    0.0000 C   0  0  0  0  0  0  0  0  0  0  0  0
    4.2446    1.7565    0.0000 C   0  0  0  0  0  0  0  0  0  0  0  0
    2.7750    1.4564    0.0000 C   0  0  0  0  0  0  0  0  0  0  0  0
    3.1339    0.0000    0.0000 C   0  0  0  0  0  0  0  0  0  0  0  0
    2.7750   -1.4564    0.0000 C   0  0  0  0  0  0  0  0  0  0  0  0
    1.7803   -2.5792    0.0000 C   0  0  0  0  0  0  0  0  0  0  0  0
    0.3778   -3.1111    0.0000 C   0  0  0  0  0  0  0  0  0  0  0  0
   -1.1113   -2.9303    0.0000 C   0  0  0  0  0  0  0  0  0  0  0  0
   -2.3458   -2.0782    0.0000 C   0  0  0  0  0  0  0  0  0  0  0  0
   -3.0429   -0.7500    0.0000 C   0  0  0  0  0  0  0  0  0  0  0  0
   -3.0429    0.7500    0.0000 C   0  0  0  0  0  0  0  0  0  0  0  0
   -2.3458    2.0782    0.0000 C   0  0  0  0  0  0  0  0  0  0  0  0
   -1.1113    2.9303    0.0000 C   0  0  0  0  0  0  0  0  0  0  0  0
   -1.6432    4.3328    0.0000 F   0  0  0  0  0  0  0  0  0  0  0  0
    0.3778    3.1111    0.0000 C   0  0  0  0  0  0  0  0  0  0  0  0
    1.7803    2.5792    0.0000 C   0  0  0  0  0  0  0  0  0  0  0  0
    2.2553    4.0020    0.0000 N   0  0  0  0  0  0  0  0  0  0  0  0
  1  2  1  0
  2  3  1  0
  3  4  2  0
  4  5  1  0
  5  6  2  0
  6  7  1  0
  7  8  2  0
  8  9  1  0
  9 10  2  0
 10 11  1  0
 11 12  2  0
 12 13  1  0
 13 14  2  0
 14 15  1  0
 15 16  2  0
 16 17  1  0
 16 18  1  0
 18 19  2  0
 19 20  1  0
 20  3  1  0
 19  6  1  0
M  END
>  <Title>  (472) 
idAASDgen8

$$$$

     RDKit          2D

 18 18  0  0  0  0  0  0  0  0999 V2000
    5.3444    0.0000    0.0000 C   0  0  0  0  0  0  0  0  0  0  0  0
    3.8444    0.0000    0.0000 C   0  0  0  0  0  0  0  0  0  0  0  0
    3.5517   -1.4712    0.0000 C   0  0  0  0  0  0  0  0  0  0  0  0
    2.7184   -2.7184    0.0000 C   0  0  0  0  0  0  0  0  0  0  0  0
    1.4712   -3.5517    0.0000 C   0  0  0  0  0  0  0  0  0  0  0  0
    2.0452   -4.9376    0.0000 C   0  0  0  0  0  0  0  0  0  0  0  0
   -0.0000   -3.8444    0.0000 C   0  0  0  0  0  0  0  0  0  0  0  0
   -1.4712   -3.5517    0.0000 C   0  0  0  0  0  0  0  0  0  0  0  0
   -2.7184   -2.7184    0.0000 C   0  0  0  0  0  0  0  0  0  0  0  0
   -3.5517   -1.4712    0.0000 C   0  0  0  0  0  0  0  0  0  0  0  0
   -3.8444    0.0000    0.0000 C   0  0  0  0  0  0  0  0  0  0  0  0
   -3.5517    1.4712    0.0000 C   0  0  0  0  0  0  0  0  0  0  0  0
   -2.7184    2.7184    0.0000 C   0  0  0  0  0  0  0  0  0  0  0  0
   -1.4712    3.5517    0.0000 C   0  0  0  0  0  0  0  0  0  0  0  0
    0.0000    3.8444    0.0000 C   0  0  0  0  0  0  0  0  0  0  0  0
    1.4712    3.5517    0.0000 C   0  0  0  0  0  0  0  0  0  0  0  0
    2.7184    2.7184    0.0000 C   0  0  0  0  0  0  0  0  0  0  0  0
    3.5517    1.4712    0.0000 C   0  0  0  0  0  0  0  0  0  0  0  0
  1  2  1  0
  2  3  2  0
  3  4  1  0
  4  5  2  0
  5  6  1  0
  5  7  1  0
  7  8  2  0
  8  9  1  0
  9 10  2  0
 10 11  1  0
 11 12  2  0
 12 13  1  0
 13 14  2  0
 14 15  1  0
 15 16  2  0
 16 17  1  0
 17 18  2  0
 18  2  1  0
M  END
>  <Title>  (473) 
idAASEgen8

$$$$

     RDKit          2D

 48 54  0  0  0  0  0  0  0  0999 V2000
    7.1715   -3.5082    0.0000 O   0  0  0  0  0  0  0  0  0  0  0  0
    5.6883   -3.2846    0.0000 C   0  0  0  0  0  0  0  0  0  0  0  0
    4.7530   -4.4574    0.0000 N   0  0  0  0  0  0  0  0  0  0  0  0
    5.3011   -5.8537    0.0000 O   0  0  0  0  0  0  0  0  0  0  0  0
    5.1403   -1.8883    0.0000 C   0  0  0  0  0  0  0  0  0  0  0  0
    3.6570   -1.6647    0.0000 C   0  0  0  0  0  0  0  0  0  0  0  0
    3.1090   -0.2684    0.0000 C   0  0  0  0  0  0  0  0  0  0  0  0
    4.0442    0.9043    0.0000 C   0  0  0  0  0  0  0  0  0  0  0  0
    3.4962    2.3006    0.0000 C   0  0  0  0  0  0  0  0  0  0  0  0
    4.4315    3.4734    0.0000 C   0  0  0  0  0  0  0  0  0  0  0  0
    3.8835    4.8697    0.0000 C   0  0  0  0  0  0  0  0  0  0  0  0
    4.8187    6.0424    0.0000 C   0  0  0  0  0  0  0  0  0  0  0  0
    4.4196    7.4884    0.0000 N   0  0  0  0  0  0  0  0  0  0  0  0
    5.6715    8.3147    0.0000 N   0  0  0  0  0  0  0  0  0  0  0  0
    6.8442    7.3795    0.0000 N   0  0  0  0  0  0  0  0  0  0  0  0
    6.3172    5.9751    0.0000 N   0  0  0  0  0  0  0  0  0  0  0  0
    7.1435    4.7233    0.0000 C   0  0  0  0  0  0  0  0  0  0  0  0
    6.4726    3.3817    0.0000 C   0  0  0  0  0  0  0  0  0  0  0  0
    7.2989    2.1299    0.0000 C   0  0  0  0  0  0  0  0  0  0  0  0
    8.7962    2.2196    0.0000 C   0  0  0  0  0  0  0  0  0  0  0  0
    9.4672    3.5611    0.0000 C   0  0  0  0  0  0  0  0  0  0  0  0
    8.6408    4.8130    0.0000 C   0  0  0  0  0  0  0  0  0  0  0  0
    2.4002    5.0933    0.0000 C   0  0  0  0  0  0  0  0  0  0  0  0
    1.4650    3.9205    0.0000 C   0  0  0  0  0  0  0  0  0  0  0  0
    2.0130    2.5242    0.0000 C   0  0  0  0  0  0  0  0  0  0  0  0
    1.0777    1.3515    0.0000 N   0  0  0  0  0  0  0  0  0  0  0  0
    1.7286    0.0000    0.0000 N   0  0  0  0  0  0  0  0  0  0  0  0
    1.0777   -1.3515    0.0000 N   0  0  0  0  0  0  0  0  0  0  0  0
   -0.3846   -1.6852    0.0000 N   0  0  0  0  0  0  0  0  0  0  0  0
   -1.5574   -0.7500    0.0000 C   0  0  0  0  0  0  0  0  0  0  0  0
   -1.5574    0.7500    0.0000 C   0  0  0  0  0  0  0  0  0  0  0  0
   -0.3846    1.6852    0.0000 C   0  0  0  0  0  0  0  0  0  0  0  0
   -0.7184    3.1476    0.0000 N   0  0  0  0  0  0  0  0  0  0  0  0
    0.2685    4.2772    0.0000 N   0  0  0  0  0  0  0  0  0  0  0  0
   -0.5009    5.5649    0.0000 N   0  0  0  0  0  0  0  0  0  0  0  0
   -1.9633    5.2311    0.0000 N   0  0  0  0  0  0  0  0  0  0  0  0
   -2.0977    3.7372    0.0000 C   0  0  0  0  0  0  0  0  0  0  0  0
   -3.3854    2.9678    0.0000 C   0  0  0  0  0  0  0  0  0  0  0  0
   -3.3630    1.4680    0.0000 C   0  0  0  0  0  0  0  0  0  0  0  0
   -4.6506    0.6986    0.0000 C   0  0  0  0  0  0  0  0  0  0  0  0
   -5.9607    1.4291    0.0000 C   0  0  0  0  0  0  0  0  0  0  0  0
   -7.2484    0.6598    0.0000 O   0  0  0  0  0  0  0  0  0  0  0  0
   -5.9832    2.9289    0.0000 C   0  0  0  0  0  0  0  0  0  0  0  0
   -7.2933    3.6594    0.0000 O   0  0  0  0  0  0  0  0  0  0  0  0
   -4.6955    3.6983    0.0000 N   0  0  0  0  0  0  0  0  0  0  0  0
    5.5275    0.6808    0.0000 C   0  0  0  0  0  0  0  0  0  0  0  0
    6.4627    1.8535    0.0000 O   0  0  0  0  0  0  0  0  0  0  0  0
    6.0755   -0.7155    0.0000 N   0  0  0  0  0  0  0  0  0  0  0  0
  1  2  2  0
  2  3  1  0
  3  4  1  0
  2  5  1  0
  5  6  2  0
  6  7  1  0
  7  8  2  0
  8  9  1  0
  9 10  2  0
 10 11  1  0
 11 12  1  0
 12 13  2  0
 13 14  1  0
 14 15  2  0
 15 16  1  0
 16 17  1  0
 17 18  2  0
 18 19  1  0
 19 20  2  0
 20 21  1  0
 21 22  2  0
 11 23  2  0
 23 24  1  0
 24 25  2  0
 25 26  1  0
 26 27  1  0
 27 28  2  0
 28 29  1  0
 29 30  2  0
 30 31  1  0
 31 32  2  0
 32 33  1  0
 33 34  1  0
 34 35  2  0
 35 36  1  0
 36 37  2  0
 37 38  1  0
 38 39  2  0
 39 40  1  0
 40 41  2  0
 41 42  1  0
 41 43  1  0
 43 44  2  0
 43 45  1  0
  8 46  1  0
 46 47  2  0
 46 48  1  0
 48  5  1  0
 25  9  1  0
 32 26  1  0
 37 33  1  0
 45 38  1  0
 16 12  1  0
 22 17  1  0
M  END
>  <Title>  (474) 
idAASFgen8

$$$$

     RDKit          2D

 32 32  0  0  0  0  0  0  0  0999 V2000
    9.4251   -1.2990    0.0000 C   0  0  0  0  0  0  0  0  0  0  0  0
    8.6751   -0.0000    0.0000 O   0  0  0  0  0  0  0  0  0  0  0  0
    7.1751    0.0000    0.0000 C   0  0  0  0  0  0  0  0  0  0  0  0
    7.0183   -1.4918    0.0000 C   0  0  0  0  0  0  0  0  0  0  0  0
    6.5548   -2.9184    0.0000 C   0  0  0  0  0  0  0  0  0  0  0  0
    5.8048   -4.2174    0.0000 C   0  0  0  0  0  0  0  0  0  0  0  0
    4.8011   -5.3321    0.0000 C   0  0  0  0  0  0  0  0  0  0  0  0
    3.5875   -6.2138    0.0000 C   0  0  0  0  0  0  0  0  0  0  0  0
    2.2172   -6.8239    0.0000 C   0  0  0  0  0  0  0  0  0  0  0  0
    0.7500   -7.1358    0.0000 C   0  0  0  0  0  0  0  0  0  0  0  0
   -0.7500   -7.1358    0.0000 C   0  0  0  0  0  0  0  0  0  0  0  0
   -2.2172   -6.8239    0.0000 C   0  0  0  0  0  0  0  0  0  0  0  0
   -3.5875   -6.2138    0.0000 C   0  0  0  0  0  0  0  0  0  0  0  0
   -4.8011   -5.3321    0.0000 C   0  0  0  0  0  0  0  0  0  0  0  0
   -5.8048   -4.2174    0.0000 C   0  0  0  0  0  0  0  0  0  0  0  0
   -6.5548   -2.9184    0.0000 C   0  0  0  0  0  0  0  0  0  0  0  0
   -7.0183   -1.4918    0.0000 C   0  0  0  0  0  0  0  0  0  0  0  0
   -7.1751    0.0000    0.0000 C   0  0  0  0  0  0  0  0  0  0  0  0
   -7.0183    1.4918    0.0000 C   0  0  0  0  0  0  0  0  0  0  0  0
   -6.5548    2.9184    0.0000 C   0  0  0  0  0  0  0  0  0  0  0  0
   -5.8048    4.2174    0.0000 C   0  0  0  0  0  0  0  0  0  0  0  0
   -4.8011    5.3321    0.0000 C   0  0  0  0  0  0  0  0  0  0  0  0
   -3.5875    6.2138    0.0000 C   0  0  0  0  0  0  0  0  0  0  0  0
   -2.2172    6.8239    0.0000 C   0  0  0  0  0  0  0  0  0  0  0  0
   -0.7500    7.1358    0.0000 C   0  0  0  0  0  0  0  0  0  0  0  0
    0.7500    7.1358    0.0000 C   0  0  0  0  0  0  0  0  0  0  0  0
    2.2172    6.8239    0.0000 C   0  0  0  0  0  0  0  0  0  0  0  0
    3.5875    6.2138    0.0000 C   0  0  0  0  0  0  0  0  0  0  0  0
    4.8011    5.3321    0.0000 C   0  0  0  0  0  0  0  0  0  0  0  0
    5.8048    4.2174    0.0000 C   0  0  0  0  0  0  0  0  0  0  0  0
    6.5548    2.9184    0.0000 C   0  0  0  0  0  0  0  0  0  0  0  0
    7.0183    1.4918    0.0000 C   0  0  0  0  0  0  0  0  0  0  0  0
  1  2  1  0
  2  3  1  0
  3  4  2  0
  4  5  1  0
  5  6  2  0
  6  7  1  0
  7  8  2  0
  8  9  1  0
  9 10  2  0
 10 11  1  0
 11 12  2  0
 12 13  1  0
 13 14  2  0
 14 15  1  0
 15 16  2  0
 16 17  1  0
 17 18  2  0
 18 19  1  0
 19 20  2  0
 20 21  1  0
 21 22  2  0
 22 23  1  0
 23 24  2  0
 24 25  1  0
 25 26  2  0
 26 27  1  0
 27 28  2  0
 28 29  1  0
 29 30  2  0
 30 31  1  0
 31 32  2  0
 32  3  1  0
M  END
>  <Title>  (475) 
idAASGgen8

$$$$

     RDKit          2D

 25 25  0  0  0  0  0  0  0  0999 V2000
    7.5200   -1.2990    0.0000 C   0  0  0  0  0  0  0  0  0  0  0  0
    6.7700    0.0000    0.0000 O   0  0  0  0  0  0  0  0  0  0  0  0
    5.2700    0.0000    0.0000 C   0  0  0  0  0  0  0  0  0  0  0  0
    5.0565   -1.4847    0.0000 C   0  0  0  0  0  0  0  0  0  0  0  0
    4.4334   -2.8492    0.0000 C   0  0  0  0  0  0  0  0  0  0  0  0
    3.4511   -3.9828    0.0000 C   0  0  0  0  0  0  0  0  0  0  0  0
    2.1892   -4.7938    0.0000 C   0  0  0  0  0  0  0  0  0  0  0  0
    0.7500   -5.2164    0.0000 C   0  0  0  0  0  0  0  0  0  0  0  0
   -0.7500   -5.2164    0.0000 C   0  0  0  0  0  0  0  0  0  0  0  0
   -2.1892   -4.7938    0.0000 C   0  0  0  0  0  0  0  0  0  0  0  0
   -3.4511   -3.9828    0.0000 C   0  0  0  0  0  0  0  0  0  0  0  0
   -4.4334   -2.8492    0.0000 C   0  0  0  0  0  0  0  0  0  0  0  0
   -5.0565   -1.4847    0.0000 C   0  0  0  0  0  0  0  0  0  0  0  0
   -5.2700    0.0000    0.0000 C   0  0  0  0  0  0  0  0  0  0  0  0
   -5.0565    1.4847    0.0000 C   0  0  0  0  0  0  0  0  0  0  0  0
   -4.4334    2.8492    0.0000 C   0  0  0  0  0  0  0  0  0  0  0  0
   -3.4511    3.9828    0.0000 C   0  0  0  0  0  0  0  0  0  0  0  0
   -2.1892    4.7938    0.0000 C   0  0  0  0  0  0  0  0  0  0  0  0
   -0.7500    5.2164    0.0000 C   0  0  0  0  0  0  0  0  0  0  0  0
    0.7500    5.2164    0.0000 C   0  0  0  0  0  0  0  0  0  0  0  0
    0.9635    6.7011    0.0000 C   0  0  0  0  0  0  0  0  0  0  0  0
    2.1892    4.7938    0.0000 C   0  0  0  0  0  0  0  0  0  0  0  0
    3.4511    3.9828    0.0000 C   0  0  0  0  0  0  0  0  0  0  0  0
    4.4334    2.8492    0.0000 C   0  0  0  0  0  0  0  0  0  0  0  0
    5.0565    1.4847    0.0000 C   0  0  0  0  0  0  0  0  0  0  0  0
  1  2  1  0
  2  3  1  0
  3  4  2  0
  4  5  1  0
  5  6  2  0
  6  7  1  0
  7  8  2  0
  8  9  1  0
  9 10  2  0
 10 11  1  0
 11 12  2  0
 12 13  1  0
 13 14  2  0
 14 15  1  0
 15 16  2  0
 16 17  1  0
 17 18  2  0
 18 19  1  0
 19 20  2  0
 20 21  1  0
 20 22  1  0
 22 23  2  0
 23 24  1  0
 24 25  2  0
 25  3  1  0
M  END
>  <Title>  (476) 
idAASHgen8

$$$$

     RDKit          2D

 20 22  0  0  0  0  0  0  0  0999 V2000
   -3.3405    6.3541    0.0000 C   0  0  0  0  0  0  0  0  0  0  0  0
   -2.4589    5.1406    0.0000 C   0  0  0  0  0  0  0  0  0  0  0  0
   -1.0323    5.6041    0.0000 C   0  0  0  0  0  0  0  0  0  0  0  0
    0.3943    5.1406    0.0000 C   0  0  0  0  0  0  0  0  0  0  0  0
    1.2760    3.9271    0.0000 C   0  0  0  0  0  0  0  0  0  0  0  0
    1.2760    2.4271    0.0000 C   0  0  0  0  0  0  0  0  0  0  0  0
    0.3943    1.2135    0.0000 C   0  0  0  0  0  0  0  0  0  0  0  0
    1.2760    0.0000    0.0000 C   0  0  0  0  0  0  0  0  0  0  0  0
    0.3943   -1.2135    0.0000 C   0  0  0  0  0  0  0  0  0  0  0  0
   -1.0323   -0.7500    0.0000 C   0  0  0  0  0  0  0  0  0  0  0  0
   -1.0323    0.7500    0.0000 C   0  0  0  0  0  0  0  0  0  0  0  0
   -2.4589    1.2135    0.0000 C   0  0  0  0  0  0  0  0  0  0  0  0
   -3.3405    2.4271    0.0000 C   0  0  0  0  0  0  0  0  0  0  0  0
   -3.3405    3.9271    0.0000 C   0  0  0  0  0  0  0  0  0  0  0  0
   -3.3405    5.4271    0.0000 C   0  0  0  0  0  0  0  0  0  0  0  0
   -2.4589    6.6406    0.0000 C   0  0  0  0  0  0  0  0  0  0  0  0
   -1.0323    7.1041    0.0000 C   0  0  0  0  0  0  0  0  0  0  0  0
    0.3943    6.6406    0.0000 C   0  0  0  0  0  0  0  0  0  0  0  0
    1.2760    5.4271    0.0000 C   0  0  0  0  0  0  0  0  0  0  0  0
    2.7026    5.8906    0.0000 O   0  0  0  0  0  0  0  0  0  0  0  0
  1  2  1  0
  2  3  2  0
  3  4  1  0
  4  5  2  0
  5  6  1  0
  6  7  2  0
  7  8  1  0
  8  9  2  0
  9 10  1  0
 10 11  2  0
 11 12  1  0
 12 13  2  0
 13 14  1  0
 14 15  1  0
 15 16  1  0
 16 17  1  0
 17 18  1  0
 18 19  1  0
 19 20  2  0
 14  2  1  0
 19  5  1  0
 11  7  1  0
M  END
>  <Title>  (477) 
idAASIgen8

$$$$

     RDKit          2D

 39 43  0  0  0  0  0  0  0  0999 V2000
    0.8311   10.2038    0.0000 C   0  0  0  0  0  0  0  0  0  0  0  0
   -0.5392    9.5937    0.0000 C   0  0  0  0  0  0  0  0  0  0  0  0
   -1.7527   10.4753    0.0000 C   0  0  0  0  0  0  0  0  0  0  0  0
   -3.1230    9.8652    0.0000 C   0  0  0  0  0  0  0  0  0  0  0  0
   -3.2798    8.3735    0.0000 C   0  0  0  0  0  0  0  0  0  0  0  0
   -4.6502    7.7634    0.0000 C   0  0  0  0  0  0  0  0  0  0  0  0
   -5.9492    8.5134    0.0000 N   0  0  0  0  0  0  0  0  0  0  0  0
   -7.0639    7.5097    0.0000 N   0  0  0  0  0  0  0  0  0  0  0  0
   -6.4538    6.1393    0.0000 N   0  0  0  0  0  0  0  0  0  0  0  0
   -4.9620    6.2961    0.0000 N   0  0  0  0  0  0  0  0  0  0  0  0
   -3.9583    5.1814    0.0000 C   0  0  0  0  0  0  0  0  0  0  0  0
   -2.4911    5.4933    0.0000 C   0  0  0  0  0  0  0  0  0  0  0  0
   -1.4874    4.3786    0.0000 C   0  0  0  0  0  0  0  0  0  0  0  0
   -1.9509    2.9520    0.0000 C   0  0  0  0  0  0  0  0  0  0  0  0
   -3.4182    2.6401    0.0000 C   0  0  0  0  0  0  0  0  0  0  0  0
   -4.4218    3.7548    0.0000 C   0  0  0  0  0  0  0  0  0  0  0  0
   -5.8891    3.4430    0.0000 C   0  0  0  0  0  0  0  0  0  0  0  0
   -6.8928    4.5577    0.0000 C   0  0  0  0  0  0  0  0  0  0  0  0
   -8.3600    4.2458    0.0000 C   0  0  0  0  0  0  0  0  0  0  0  0
   -8.8235    2.8192    0.0000 C   0  0  0  0  0  0  0  0  0  0  0  0
  -10.2907    2.5074    0.0000 C   0  0  0  0  0  0  0  0  0  0  0  0
  -10.7543    1.0808    0.0000 O   0  0  0  0  0  0  0  0  0  0  0  0
  -11.2944    3.6221    0.0000 N   0  0  0  0  0  0  0  0  0  0  0  0
  -12.7617    3.3102    0.0000 O   0  0  0  0  0  0  0  0  0  0  0  0
   -7.8198    1.7045    0.0000 N   0  0  0  0  0  0  0  0  0  0  0  0
   -6.3526    2.0164    0.0000 C   0  0  0  0  0  0  0  0  0  0  0  0
   -5.3489    0.9017    0.0000 C   0  0  0  0  0  0  0  0  0  0  0  0
   -3.8817    1.2135    0.0000 C   0  0  0  0  0  0  0  0  0  0  0  0
   -2.8780    0.0988    0.0000 C   0  0  0  0  0  0  0  0  0  0  0  0
   -3.3415   -1.3278    0.0000 C   0  0  0  0  0  0  0  0  0  0  0  0
   -2.3378   -2.4425    0.0000 C   0  0  0  0  0  0  0  0  0  0  0  0
   -2.8013   -3.8691    0.0000 O   0  0  0  0  0  0  0  0  0  0  0  0
   -0.8706   -2.1306    0.0000 N   0  0  0  0  0  0  0  0  0  0  0  0
    0.1331   -3.2453    0.0000 O   0  0  0  0  0  0  0  0  0  0  0  0
   -4.8087   -1.6396    0.0000 N   0  0  0  0  0  0  0  0  0  0  0  0
   -5.8124   -0.5249    0.0000 C   0  0  0  0  0  0  0  0  0  0  0  0
   -7.2796   -0.8368    0.0000 O   0  0  0  0  0  0  0  0  0  0  0  0
   -2.0663    7.4918    0.0000 C   0  0  0  0  0  0  0  0  0  0  0  0
   -0.6960    8.1019    0.0000 C   0  0  0  0  0  0  0  0  0  0  0  0
  1  2  1  0
  2  3  2  0
  3  4  1  0
  4  5  2  0
  5  6  1  0
  6  7  2  0
  7  8  1  0
  8  9  2  0
  9 10  1  0
 10 11  1  0
 11 12  1  0
 12 13  1  0
 13 14  1  0
 14 15  1  0
 15 16  1  0
 16 17  1  0
 17 18  2  0
 18 19  1  0
 19 20  2  0
 20 21  1  0
 21 22  2  0
 21 23  1  0
 23 24  1  0
 20 25  1  0
 25 26  1  0
 26 27  1  0
 27 28  2  0
 28 29  1  0
 29 30  2  0
 30 31  1  0
 31 32  2  0
 31 33  1  0
 33 34  1  0
 30 35  1  0
 35 36  1  0
 36 37  2  0
  5 38  1  0
 38 39  2  0
 39  2  1  0
 10  6  1  0
 16 11  1  0
 26 17  1  0
 36 27  1  0
M  END
>  <Title>  (478) 
idAASJgen8

$$$$

     RDKit          2D

 39 44  0  0  0  0  0  0  0  0999 V2000
    3.7500   -1.2990    0.0000 C   0  0  0  0  0  0  0  0  0  0  0  0
    3.0000    0.0000    0.0000 O   0  0  0  0  0  0  0  0  0  0  0  0
    1.5000    0.0000    0.0000 C   0  0  0  0  0  0  0  0  0  0  0  0
    0.7500   -1.2990    0.0000 C   0  0  0  0  0  0  0  0  0  0  0  0
   -0.7500   -1.2990    0.0000 C   0  0  0  0  0  0  0  0  0  0  0  0
   -1.5000    0.0000    0.0000 C   0  0  0  0  0  0  0  0  0  0  0  0
   -3.0000    0.0000    0.0000 C   0  0  0  0  0  0  0  0  0  0  0  0
   -3.8817   -1.2135    0.0000 N   0  0  0  0  0  0  0  0  0  0  0  0
   -5.3083   -0.7500    0.0000 N   0  0  0  0  0  0  0  0  0  0  0  0
   -5.3083    0.7500    0.0000 N   0  0  0  0  0  0  0  0  0  0  0  0
   -3.8817    1.2135    0.0000 N   0  0  0  0  0  0  0  0  0  0  0  0
   -3.4182    2.6401    0.0000 C   0  0  0  0  0  0  0  0  0  0  0  0
   -1.9509    2.9520    0.0000 C   0  0  0  0  0  0  0  0  0  0  0  0
   -1.4874    4.3786    0.0000 C   0  0  0  0  0  0  0  0  0  0  0  0
   -2.4911    5.4933    0.0000 C   0  0  0  0  0  0  0  0  0  0  0  0
   -3.9583    5.1814    0.0000 C   0  0  0  0  0  0  0  0  0  0  0  0
   -4.4218    3.7548    0.0000 C   0  0  0  0  0  0  0  0  0  0  0  0
   -5.8891    3.4430    0.0000 C   0  0  0  0  0  0  0  0  0  0  0  0
   -6.8928    4.5577    0.0000 C   0  0  0  0  0  0  0  0  0  0  0  0
   -8.3600    4.2458    0.0000 C   0  0  0  0  0  0  0  0  0  0  0  0
   -8.8235    2.8192    0.0000 C   0  0  0  0  0  0  0  0  0  0  0  0
  -10.2907    2.5074    0.0000 C   0  0  0  0  0  0  0  0  0  0  0  0
  -10.7543    1.0808    0.0000 O   0  0  0  0  0  0  0  0  0  0  0  0
  -11.2944    3.6221    0.0000 N   0  0  0  0  0  0  0  0  0  0  0  0
  -12.7617    3.3102    0.0000 C   0  0  0  0  0  0  0  0  0  0  0  0
  -13.3718    1.9399    0.0000 N   0  0  0  0  0  0  0  0  0  0  0  0
  -14.8635    2.0967    0.0000 N   0  0  0  0  0  0  0  0  0  0  0  0
  -15.1754    3.5639    0.0000 N   0  0  0  0  0  0  0  0  0  0  0  0
  -13.8764    4.3139    0.0000 N   0  0  0  0  0  0  0  0  0  0  0  0
  -13.7196    5.8057    0.0000 C   0  0  0  0  0  0  0  0  0  0  0  0
  -12.3493    6.4158    0.0000 C   0  0  0  0  0  0  0  0  0  0  0  0
  -12.1925    7.9076    0.0000 C   0  0  0  0  0  0  0  0  0  0  0  0
  -13.4060    8.7893    0.0000 C   0  0  0  0  0  0  0  0  0  0  0  0
  -14.7763    8.1791    0.0000 C   0  0  0  0  0  0  0  0  0  0  0  0
  -14.9331    6.6874    0.0000 C   0  0  0  0  0  0  0  0  0  0  0  0
   -7.8198    1.7045    0.0000 C   0  0  0  0  0  0  0  0  0  0  0  0
   -6.3526    2.0164    0.0000 C   0  0  0  0  0  0  0  0  0  0  0  0
   -0.7500    1.2990    0.0000 C   0  0  0  0  0  0  0  0  0  0  0  0
    0.7500    1.2990    0.0000 C   0  0  0  0  0  0  0  0  0  0  0  0
  1  2  1  0
  2  3  1  0
  3  4  2  0
  4  5  1  0
  5  6  2  0
  6  7  1  0
  7  8  2  0
  8  9  1  0
  9 10  2  0
 10 11  1  0
 11 12  1  0
 12 13  1  0
 13 14  1  0
 14 15  1  0
 15 16  1  0
 16 17  1  0
 17 18  1  0
 18 19  2  0
 19 20  1  0
 20 21  2  0
 21 22  1  0
 22 23  2  0
 22 24  1  0
 24 25  1  0
 25 26  2  0
 26 27  1  0
 27 28  2  0
 28 29  1  0
 29 30  1  0
 30 31  2  0
 31 32  1  0
 32 33  2  0
 33 34  1  0
 34 35  2  0
 21 36  1  0
 36 37  2  0
  6 38  1  0
 38 39  2  0
 39  3  1  0
 11  7  1  0
 17 12  1  0
 37 18  1  0
 29 25  1  0
 35 30  1  0
M  END
>  <Title>  (479) 
idAASKgen8

$$$$

     RDKit          2D

 31 35  0  0  0  0  0  0  0  0999 V2000
    3.2286   -0.0000    0.0000 C   0  0  0  0  0  0  0  0  0  0  0  0
    1.7286    0.0000    0.0000 C   0  0  0  0  0  0  0  0  0  0  0  0
    1.0777    1.3515    0.0000 C   0  0  0  0  0  0  0  0  0  0  0  0
   -0.3846    1.6852    0.0000 C   0  0  0  0  0  0  0  0  0  0  0  0
   -1.5574    0.7500    0.0000 C   0  0  0  0  0  0  0  0  0  0  0  0
   -2.9088    1.4008    0.0000 C   0  0  0  0  0  0  0  0  0  0  0  0
   -4.2297    0.6900    0.0000 N   0  0  0  0  0  0  0  0  0  0  0  0
   -5.3139    1.7266    0.0000 N   0  0  0  0  0  0  0  0  0  0  0  0
   -4.6631    3.0781    0.0000 N   0  0  0  0  0  0  0  0  0  0  0  0
   -3.1767    2.8767    0.0000 N   0  0  0  0  0  0  0  0  0  0  0  0
   -2.1401    3.9609    0.0000 C   0  0  0  0  0  0  0  0  0  0  0  0
   -0.6405    3.9946    0.0000 N   0  0  0  0  0  0  0  0  0  0  0  0
   -0.6741    5.4942    0.0000 C   0  0  0  0  0  0  0  0  0  0  0  0
    0.3625    6.5784    0.0000 C   0  0  0  0  0  0  0  0  0  0  0  0
    0.0946    8.0543    0.0000 C   0  0  0  0  0  0  0  0  0  0  0  0
    1.4155    8.7651    0.0000 N   0  0  0  0  0  0  0  0  0  0  0  0
    2.4997    7.7285    0.0000 N   0  0  0  0  0  0  0  0  0  0  0  0
    1.8489    6.3770    0.0000 N   0  0  0  0  0  0  0  0  0  0  0  0
    2.5597    5.0561    0.0000 C   0  0  0  0  0  0  0  0  0  0  0  0
    1.7712    3.7801    0.0000 C   0  0  0  0  0  0  0  0  0  0  0  0
    2.4820    2.4592    0.0000 N   0  0  0  0  0  0  0  0  0  0  0  0
    3.9813    2.4144    0.0000 N   0  0  0  0  0  0  0  0  0  0  0  0
    4.7698    3.6904    0.0000 N   0  0  0  0  0  0  0  0  0  0  0  0
    4.0590    5.0113    0.0000 N   0  0  0  0  0  0  0  0  0  0  0  0
   -2.1737    5.4605    0.0000 C   0  0  0  0  0  0  0  0  0  0  0  0
   -3.2579    6.4971    0.0000 O   0  0  0  0  0  0  0  0  0  0  0  0
   -1.5574   -0.7500    0.0000 N   0  0  0  0  0  0  0  0  0  0  0  0
   -0.3846   -1.6852    0.0000 C   0  0  0  0  0  0  0  0  0  0  0  0
   -0.7184   -3.1476    0.0000 O   0  0  0  0  0  0  0  0  0  0  0  0
    1.0777   -1.3515    0.0000 C   0  0  0  0  0  0  0  0  0  0  0  0
    2.0130   -2.5242    0.0000 O   0  0  0  0  0  0  0  0  0  0  0  0
  1  2  1  0
  2  3  2  0
  3  4  1  0
  4  5  2  0
  5  6  1  0
  6  7  2  0
  7  8  1  0
  8  9  2  0
  9 10  1  0
 10 11  1  0
 11 12  1  0
 12 13  1  0
 13 14  1  0
 14 15  2  0
 15 16  1  0
 16 17  2  0
 17 18  1  0
 18 19  1  0
 19 20  2  0
 20 21  1  0
 21 22  2  0
 22 23  1  0
 23 24  2  0
 13 25  1  0
 25 26  2  0
  5 27  1  0
 27 28  1  0
 28 29  2  0
 28 30  1  0
 30 31  2  0
 30  2  1  0
 10  6  1  0
 25 11  1  0
 18 14  1  0
 24 19  1  0
M  END
>  <Title>  (480) 
idAASLgen8

$$$$

     RDKit          2D

 54 62  0  0  0  0  0  0  0  0999 V2000
   -5.0710    6.1583    0.0000 C   0  0  0  0  0  0  0  0  0  0  0  0
   -3.6893    5.5744    0.0000 C   0  0  0  0  0  0  0  0  0  0  0  0
   -3.8603    4.0842    0.0000 C   0  0  0  0  0  0  0  0  0  0  0  0
   -3.1985    2.7381    0.0000 C   0  0  0  0  0  0  0  0  0  0  0  0
   -1.9140    1.9635    0.0000 C   0  0  0  0  0  0  0  0  0  0  0  0
   -1.0323    3.1771    0.0000 N   0  0  0  0  0  0  0  0  0  0  0  0
    0.3943    2.7135    0.0000 C   0  0  0  0  0  0  0  0  0  0  0  0
    0.3943    1.2135    0.0000 C   0  0  0  0  0  0  0  0  0  0  0  0
    1.2760    0.0000    0.0000 N   0  0  0  0  0  0  0  0  0  0  0  0
    0.3943   -1.2135    0.0000 N   0  0  0  0  0  0  0  0  0  0  0  0
   -1.0323   -0.7500    0.0000 N   0  0  0  0  0  0  0  0  0  0  0  0
   -1.0323    0.7500    0.0000 N   0  0  0  0  0  0  0  0  0  0  0  0
    1.4075    4.2347    0.0000 C   0  0  0  0  0  0  0  0  0  0  0  0
    1.1518    5.7127    0.0000 C   0  0  0  0  0  0  0  0  0  0  0  0
    0.1375    6.8179    0.0000 C   0  0  0  0  0  0  0  0  0  0  0  0
    0.9121    8.1024    0.0000 N   0  0  0  0  0  0  0  0  0  0  0  0
    0.3282    9.4841    0.0000 N   0  0  0  0  0  0  0  0  0  0  0  0
    1.4618   10.4664    0.0000 N   0  0  0  0  0  0  0  0  0  0  0  0
    2.7463    9.6918    0.0000 N   0  0  0  0  0  0  0  0  0  0  0  0
    2.4066    8.2307    0.0000 C   0  0  0  0  0  0  0  0  0  0  0  0
    3.3889    7.0971    0.0000 N   0  0  0  0  0  0  0  0  0  0  0  0
    2.8983    5.6796    0.0000 N   0  0  0  0  0  0  0  0  0  0  0  0
    3.8806    4.5460    0.0000 N   0  0  0  0  0  0  0  0  0  0  0  0
    5.3535    4.8299    0.0000 N   0  0  0  0  0  0  0  0  0  0  0  0
    5.8441    6.2474    0.0000 N   0  0  0  0  0  0  0  0  0  0  0  0
    4.8618    7.3810    0.0000 N   0  0  0  0  0  0  0  0  0  0  0  0
    5.3524    8.7985    0.0000 C   0  0  0  0  0  0  0  0  0  0  0  0
    4.3701    9.9321    0.0000 C   0  0  0  0  0  0  0  0  0  0  0  0
    4.8607   11.3496    0.0000 C   0  0  0  0  0  0  0  0  0  0  0  0
    6.3336   11.6335    0.0000 C   0  0  0  0  0  0  0  0  0  0  0  0
    7.3159   10.4999    0.0000 C   0  0  0  0  0  0  0  0  0  0  0  0
    6.8253    9.0824    0.0000 C   0  0  0  0  0  0  0  0  0  0  0  0
    7.8076    7.9487    0.0000 C   0  0  0  0  0  0  0  0  0  0  0  0
    7.3170    6.5312    0.0000 C   0  0  0  0  0  0  0  0  0  0  0  0
    8.2992    5.3976    0.0000 C   0  0  0  0  0  0  0  0  0  0  0  0
    9.7721    5.6815    0.0000 C   0  0  0  0  0  0  0  0  0  0  0  0
   10.2627    7.0990    0.0000 C   0  0  0  0  0  0  0  0  0  0  0  0
    9.2804    8.2326    0.0000 C   0  0  0  0  0  0  0  0  0  0  0  0
    9.7711    9.6501    0.0000 N   0  0  0  0  0  0  0  0  0  0  0  0
    8.9126   10.8802    0.0000 N   0  0  0  0  0  0  0  0  0  0  0  0
    9.8173   12.0767    0.0000 N   0  0  0  0  0  0  0  0  0  0  0  0
   11.2348   11.5861    0.0000 N   0  0  0  0  0  0  0  0  0  0  0  0
   11.2062   10.0864    0.0000 C   0  0  0  0  0  0  0  0  0  0  0  0
   12.4027    9.1818    0.0000 C   0  0  0  0  0  0  0  0  0  0  0  0
   12.2176    7.6933    0.0000 C   0  0  0  0  0  0  0  0  0  0  0  0
   13.4141    6.7886    0.0000 C   0  0  0  0  0  0  0  0  0  0  0  0
   14.7958    7.3725    0.0000 C   0  0  0  0  0  0  0  0  0  0  0  0
   15.9923    6.4679    0.0000 C   0  0  0  0  0  0  0  0  0  0  0  0
   14.9809    8.8611    0.0000 N   0  0  0  0  0  0  0  0  0  0  0  0
   13.7844    9.7657    0.0000 C   0  0  0  0  0  0  0  0  0  0  0  0
   13.9696   11.2542    0.0000 O   0  0  0  0  0  0  0  0  0  0  0  0
   -1.3132    7.1992    0.0000 N   0  0  0  0  0  0  0  0  0  0  0  0
   -2.7398    6.7357    0.0000 C   0  0  0  0  0  0  0  0  0  0  0  0
   -3.5865    7.9739    0.0000 O   0  0  0  0  0  0  0  0  0  0  0  0
  1  2  1  0
  2  3  2  0
  3  4  1  0
  4  5  2  0
  5  6  1  0
  6  7  1  0
  7  8  1  0
  8  9  2  0
  9 10  1  0
 10 11  2  0
 11 12  1  0
  7 13  2  0
 13 14  1  0
 14 15  2  0
 15 16  1  0
 16 17  1  0
 17 18  2  0
 18 19  1  0
 19 20  2  0
 20 21  1  0
 21 22  1  0
 22 23  2  0
 23 24  1  0
 24 25  2  0
 25 26  1  0
 26 27  1  0
 27 28  2  0
 28 29  1  0
 29 30  2  0
 30 31  1  0
 31 32  2  0
 32 33  1  0
 33 34  1  0
 34 35  1  0
 35 36  1  0
 36 37  1  0
 37 38  1  0
 38 39  1  0
 39 40  1  0
 40 41  2  0
 41 42  1  0
 42 43  2  0
 43 44  1  0
 44 45  2  0
 45 46  1  0
 46 47  2  0
 47 48  1  0
 47 49  1  0
 49 50  1  0
 50 51  2  0
 15 52  1  0
 52 53  1  0
 53 54  2  0
 53  2  1  0
 12  5  1  0
 20 16  1  0
 26 21  1  0
 32 27  1  0
 38 33  1  0
 43 39  1  0
 50 44  1  0
 12  8  1  0
M  END
>  <Title>  (481) 
idAASMgen8

$$$$

     RDKit          2D

 16 16  0  0  0  0  0  0  0  0999 V2000
   12.0000   -5.1962    0.0000 C   0  0  0  0  0  0  0  0  0  0  0  0
   10.5000   -5.1962    0.0000 C   0  0  0  0  0  0  0  0  0  0  0  0
    9.7500   -3.8971    0.0000 C   0  0  0  0  0  0  0  0  0  0  0  0
    8.2500   -3.8971    0.0000 C   0  0  0  0  0  0  0  0  0  0  0  0
    7.5000   -2.5981    0.0000 C   0  0  0  0  0  0  0  0  0  0  0  0
    6.0000   -2.5981    0.0000 C   0  0  0  0  0  0  0  0  0  0  0  0
    5.2500   -1.2990    0.0000 C   0  0  0  0  0  0  0  0  0  0  0  0
    3.7500   -1.2990    0.0000 C   0  0  0  0  0  0  0  0  0  0  0  0
    3.0000    0.0000    0.0000 N   0  0  0  0  0  0  0  0  0  0  0  0
    1.5000    0.0000    0.0000 C   0  0  0  0  0  0  0  0  0  0  0  0
    0.7500   -1.2990    0.0000 C   0  0  0  0  0  0  0  0  0  0  0  0
   -0.7500   -1.2990    0.0000 C   0  0  0  0  0  0  0  0  0  0  0  0
   -1.5000    0.0000    0.0000 C   0  0  0  0  0  0  0  0  0  0  0  0
   -0.7500    1.2990    0.0000 C   0  0  0  0  0  0  0  0  0  0  0  0
    0.7500    1.2990    0.0000 C   0  0  0  0  0  0  0  0  0  0  0  0
    1.5000    2.5981    0.0000 C   0  0  0  0  0  0  0  0  0  0  0  0
  1  2  1  0
  2  3  1  0
  3  4  1  0
  4  5  1  0
  5  6  1  0
  6  7  1  0
  7  8  1  0
  8  9  1  0
  9 10  1  0
 10 11  2  0
 11 12  1  0
 12 13  2  0
 13 14  1  0
 14 15  2  0
 15 16  1  0
 15 10  1  0
M  END
>  <Title>  (482) 
idAASNgen8

$$$$

     RDKit          2D

 28 28  0  0  0  0  0  0  0  0999 V2000
    7.9603    0.0000    0.0000 C   0  0  0  0  0  0  0  0  0  0  0  0
    6.4603    0.0000    0.0000 N   0  0  0  0  0  0  0  0  0  0  0  0
    6.2862    1.4899    0.0000 C   0  0  0  0  0  0  0  0  0  0  0  0
    5.7732    2.8994    0.0000 C   0  0  0  0  0  0  0  0  0  0  0  0
    4.9489    4.1526    0.0000 C   0  0  0  0  0  0  0  0  0  0  0  0
    3.8578    5.1820    0.0000 C   0  0  0  0  0  0  0  0  0  0  0  0
    2.5588    5.9320    0.0000 C   0  0  0  0  0  0  0  0  0  0  0  0
    1.1218    6.3622    0.0000 C   0  0  0  0  0  0  0  0  0  0  0  0
   -0.3756    6.4494    0.0000 C   0  0  0  0  0  0  0  0  0  0  0  0
   -1.8528    6.1889    0.0000 C   0  0  0  0  0  0  0  0  0  0  0  0
   -3.2302    5.5948    0.0000 C   0  0  0  0  0  0  0  0  0  0  0  0
   -4.4334    4.6991    0.0000 C   0  0  0  0  0  0  0  0  0  0  0  0
   -5.3975    3.5500    0.0000 C   0  0  0  0  0  0  0  0  0  0  0  0
   -6.0707    2.2096    0.0000 C   0  0  0  0  0  0  0  0  0  0  0  0
   -6.4167    0.7500    0.0000 C   0  0  0  0  0  0  0  0  0  0  0  0
   -6.4167   -0.7500    0.0000 C   0  0  0  0  0  0  0  0  0  0  0  0
   -6.0707   -2.2096    0.0000 C   0  0  0  0  0  0  0  0  0  0  0  0
   -5.3975   -3.5500    0.0000 C   0  0  0  0  0  0  0  0  0  0  0  0
   -4.4334   -4.6991    0.0000 C   0  0  0  0  0  0  0  0  0  0  0  0
   -3.2302   -5.5948    0.0000 C   0  0  0  0  0  0  0  0  0  0  0  0
   -1.8528   -6.1889    0.0000 C   0  0  0  0  0  0  0  0  0  0  0  0
   -0.3756   -6.4494    0.0000 C   0  0  0  0  0  0  0  0  0  0  0  0
    1.1218   -6.3622    0.0000 C   0  0  0  0  0  0  0  0  0  0  0  0
    2.5588   -5.9320    0.0000 C   0  0  0  0  0  0  0  0  0  0  0  0
    3.8578   -5.1820    0.0000 C   0  0  0  0  0  0  0  0  0  0  0  0
    4.9489   -4.1526    0.0000 C   0  0  0  0  0  0  0  0  0  0  0  0
    5.7732   -2.8994    0.0000 C   0  0  0  0  0  0  0  0  0  0  0  0
    6.2862   -1.4899    0.0000 N   0  0  0  0  0  0  0  0  0  0  0  0
  1  2  1  0
  2  3  1  0
  3  4  2  0
  4  5  1  0
  5  6  2  0
  6  7  1  0
  7  8  2  0
  8  9  1  0
  9 10  2  0
 10 11  1  0
 11 12  2  0
 12 13  1  0
 13 14  2  0
 14 15  1  0
 15 16  2  0
 16 17  1  0
 17 18  2  0
 18 19  1  0
 19 20  2  0
 20 21  1  0
 21 22  2  0
 22 23  1  0
 23 24  2  0
 24 25  1  0
 25 26  2  0
 26 27  1  0
 27 28  2  0
 28  2  1  0
M  END
>  <Title>  (483) 
idAASOgen8

$$$$

     RDKit          2D

 63 73  0  0  0  0  0  0  0  0999 V2000
    3.0000    0.0000    0.0000 C   0  0  0  0  0  0  0  0  0  0  0  0
    1.5000    0.0000    0.0000 C   0  0  0  0  0  0  0  0  0  0  0  0
    0.7500   -1.2990    0.0000 C   0  0  0  0  0  0  0  0  0  0  0  0
   -0.7500   -1.2990    0.0000 C   0  0  0  0  0  0  0  0  0  0  0  0
   -1.5000    0.0000    0.0000 C   0  0  0  0  0  0  0  0  0  0  0  0
   -3.0000    0.0000    0.0000 C   0  0  0  0  0  0  0  0  0  0  0  0
   -3.8817   -1.2135    0.0000 N   0  0  0  0  0  0  0  0  0  0  0  0
   -5.3083   -0.7500    0.0000 N   0  0  0  0  0  0  0  0  0  0  0  0
   -5.3083    0.7500    0.0000 N   0  0  0  0  0  0  0  0  0  0  0  0
   -3.8817    1.2135    0.0000 N   0  0  0  0  0  0  0  0  0  0  0  0
   -3.4182    2.6401    0.0000 C   0  0  0  0  0  0  0  0  0  0  0  0
   -1.9509    2.9520    0.0000 C   0  0  0  0  0  0  0  0  0  0  0  0
   -1.4874    4.3786    0.0000 C   0  0  0  0  0  0  0  0  0  0  0  0
   -2.4911    5.4933    0.0000 C   0  0  0  0  0  0  0  0  0  0  0  0
   -2.0276    6.9199    0.0000 C   0  0  0  0  0  0  0  0  0  0  0  0
   -2.9093    8.1334    0.0000 N   0  0  0  0  0  0  0  0  0  0  0  0
   -2.0276    9.3469    0.0000 N   0  0  0  0  0  0  0  0  0  0  0  0
   -0.6010    8.8834    0.0000 N   0  0  0  0  0  0  0  0  0  0  0  0
   -0.6010    7.3834    0.0000 N   0  0  0  0  0  0  0  0  0  0  0  0
    0.6125    6.5017    0.0000 C   0  0  0  0  0  0  0  0  0  0  0  0
    0.4557    5.0099    0.0000 C   0  0  0  0  0  0  0  0  0  0  0  0
    1.6693    4.1283    0.0000 C   0  0  0  0  0  0  0  0  0  0  0  0
    3.0396    4.7384    0.0000 C   0  0  0  0  0  0  0  0  0  0  0  0
    4.2531    3.8567    0.0000 C   0  0  0  0  0  0  0  0  0  0  0  0
    4.0963    2.3649    0.0000 C   0  0  0  0  0  0  0  0  0  0  0  0
    5.3098    1.4832    0.0000 C   0  0  0  0  0  0  0  0  0  0  0  0
    6.6802    2.0933    0.0000 C   0  0  0  0  0  0  0  0  0  0  0  0
    6.8370    3.5851    0.0000 C   0  0  0  0  0  0  0  0  0  0  0  0
    5.6234    4.4668    0.0000 C   0  0  0  0  0  0  0  0  0  0  0  0
    3.1964    6.2301    0.0000 C   0  0  0  0  0  0  0  0  0  0  0  0
    1.9829    7.1118    0.0000 C   0  0  0  0  0  0  0  0  0  0  0  0
   -3.9583    5.1814    0.0000 C   0  0  0  0  0  0  0  0  0  0  0  0
   -4.4218    3.7548    0.0000 C   0  0  0  0  0  0  0  0  0  0  0  0
   -5.8891    3.4430    0.0000 N   0  0  0  0  0  0  0  0  0  0  0  0
   -6.3526    2.0164    0.0000 N   0  0  0  0  0  0  0  0  0  0  0  0
   -7.8198    1.7045    0.0000 N   0  0  0  0  0  0  0  0  0  0  0  0
   -8.8235    2.8192    0.0000 N   0  0  0  0  0  0  0  0  0  0  0  0
   -8.3600    4.2458    0.0000 N   0  0  0  0  0  0  0  0  0  0  0  0
   -6.8928    4.5577    0.0000 N   0  0  0  0  0  0  0  0  0  0  0  0
   -6.4292    5.9843    0.0000 C   0  0  0  0  0  0  0  0  0  0  0  0
   -7.4329    7.0990    0.0000 C   0  0  0  0  0  0  0  0  0  0  0  0
   -6.9694    8.5256    0.0000 C   0  0  0  0  0  0  0  0  0  0  0  0
   -5.5022    8.8374    0.0000 C   0  0  0  0  0  0  0  0  0  0  0  0
   -5.0387   10.2640    0.0000 C   0  0  0  0  0  0  0  0  0  0  0  0
   -3.6121   10.7275    0.0000 C   0  0  0  0  0  0  0  0  0  0  0  0
   -3.6121   12.2275    0.0000 C   0  0  0  0  0  0  0  0  0  0  0  0
   -5.0387   12.6911    0.0000 C   0  0  0  0  0  0  0  0  0  0  0  0
   -5.9203   11.4775    0.0000 N   0  0  0  0  0  0  0  0  0  0  0  0
   -7.4203   11.4775    0.0000 C   0  0  0  0  0  0  0  0  0  0  0  0
   -8.3020   10.2640    0.0000 N   0  0  0  0  0  0  0  0  0  0  0  0
   -9.7286   10.7275    0.0000 N   0  0  0  0  0  0  0  0  0  0  0  0
   -9.7286   12.2275    0.0000 N   0  0  0  0  0  0  0  0  0  0  0  0
   -8.3020   12.6911    0.0000 N   0  0  0  0  0  0  0  0  0  0  0  0
   -7.8385   14.1177    0.0000 C   0  0  0  0  0  0  0  0  0  0  0  0
   -6.3713   14.4295    0.0000 C   0  0  0  0  0  0  0  0  0  0  0  0
   -5.9077   15.8561    0.0000 C   0  0  0  0  0  0  0  0  0  0  0  0
   -6.9114   16.9708    0.0000 C   0  0  0  0  0  0  0  0  0  0  0  0
   -8.3787   16.6590    0.0000 C   0  0  0  0  0  0  0  0  0  0  0  0
   -8.8422   15.2324    0.0000 C   0  0  0  0  0  0  0  0  0  0  0  0
   -4.4985    7.7227    0.0000 C   0  0  0  0  0  0  0  0  0  0  0  0
   -4.9620    6.2961    0.0000 C   0  0  0  0  0  0  0  0  0  0  0  0
   -0.7500    1.2990    0.0000 C   0  0  0  0  0  0  0  0  0  0  0  0
    0.7500    1.2990    0.0000 C   0  0  0  0  0  0  0  0  0  0  0  0
  1  2  1  0
  2  3  2  0
  3  4  1  0
  4  5  2  0
  5  6  1  0
  6  7  2  0
  7  8  1  0
  8  9  2  0
  9 10  1  0
 10 11  1  0
 11 12  2  0
 12 13  1  0
 13 14  2  0
 14 15  1  0
 15 16  2  0
 16 17  1  0
 17 18  2  0
 18 19  1  0
 19 20  1  0
 20 21  2  0
 21 22  1  0
 22 23  2  0
 23 24  1  0
 24 25  2  0
 25 26  1  0
 26 27  2  0
 27 28  1  0
 28 29  2  0
 23 30  1  0
 30 31  2  0
 14 32  1  0
 32 33  2  0
 33 34  1  0
 34 35  1  0
 35 36  2  0
 36 37  1  0
 37 38  2  0
 38 39  1  0
 39 40  1  0
 40 41  2  0
 41 42  1  0
 42 43  2  0
 43 44  1  0
 44 45  2  0
 45 46  1  0
 46 47  2  0
 47 48  1  0
 48 49  1  0
 49 50  2  0
 50 51  1  0
 51 52  2  0
 52 53  1  0
 53 54  1  0
 54 55  2  0
 55 56  1  0
 56 57  2  0
 57 58  1  0
 58 59  2  0
 43 60  1  0
 60 61  2  0
  5 62  1  0
 62 63  2  0
 63  2  1  0
 10  6  1  0
 33 11  1  0
 39 34  1  0
 61 40  1  0
 19 15  1  0
 31 20  1  0
 48 44  1  0
 53 49  1  0
 59 54  1  0
 29 24  1  0
M  END
>  <Title>  (484) 
idAASPgen8

$$$$

     RDKit          2D

 36 40  0  0  0  0  0  0  0  0999 V2000
    6.2011   11.0718    0.0000 C   0  0  0  0  0  0  0  0  0  0  0  0
    6.3579    9.5800    0.0000 C   0  0  0  0  0  0  0  0  0  0  0  0
    5.2432    8.5763    0.0000 C   0  0  0  0  0  0  0  0  0  0  0  0
    5.8533    7.2060    0.0000 C   0  0  0  0  0  0  0  0  0  0  0  0
    7.3450    7.3628    0.0000 C   0  0  0  0  0  0  0  0  0  0  0  0
    8.3487    6.2481    0.0000 N   0  0  0  0  0  0  0  0  0  0  0  0
    9.8405    6.4049    0.0000 N   0  0  0  0  0  0  0  0  0  0  0  0
   10.4506    5.0345    0.0000 N   0  0  0  0  0  0  0  0  0  0  0  0
    9.3359    4.0308    0.0000 N   0  0  0  0  0  0  0  0  0  0  0  0
    8.0369    4.7808    0.0000 C   0  0  0  0  0  0  0  0  0  0  0  0
    6.6666    4.1707    0.0000 C   0  0  0  0  0  0  0  0  0  0  0  0
    5.4530    5.0524    0.0000 O   0  0  0  0  0  0  0  0  0  0  0  0
    6.5098    2.6790    0.0000 N   0  0  0  0  0  0  0  0  0  0  0  0
    5.1394    2.0689    0.0000 C   0  0  0  0  0  0  0  0  0  0  0  0
    3.9259    2.9505    0.0000 O   0  0  0  0  0  0  0  0  0  0  0  0
    4.9826    0.5771    0.0000 C   0  0  0  0  0  0  0  0  0  0  0  0
    6.0974   -0.4266    0.0000 C   0  0  0  0  0  0  0  0  0  0  0  0
    5.4873   -1.7969    0.0000 C   0  0  0  0  0  0  0  0  0  0  0  0
    3.9955   -1.6402    0.0000 C   0  0  0  0  0  0  0  0  0  0  0  0
    2.9918   -2.7549    0.0000 N   0  0  0  0  0  0  0  0  0  0  0  0
    3.3037   -4.2221    0.0000 N   0  0  0  0  0  0  0  0  0  0  0  0
    2.0046   -4.9721    0.0000 N   0  0  0  0  0  0  0  0  0  0  0  0
    0.8899   -3.9684    0.0000 N   0  0  0  0  0  0  0  0  0  0  0  0
    1.5000   -2.5981    0.0000 C   0  0  0  0  0  0  0  0  0  0  0  0
    0.7500   -1.2990    0.0000 C   0  0  0  0  0  0  0  0  0  0  0  0
    1.5000    0.0000    0.0000 C   0  0  0  0  0  0  0  0  0  0  0  0
    0.7500    1.2990    0.0000 C   0  0  0  0  0  0  0  0  0  0  0  0
   -0.7500    1.2990    0.0000 C   0  0  0  0  0  0  0  0  0  0  0  0
   -1.5000    2.5981    0.0000 C   0  0  0  0  0  0  0  0  0  0  0  0
   -1.5000    0.0000    0.0000 C   0  0  0  0  0  0  0  0  0  0  0  0
   -3.0000    0.0000    0.0000 O   0  0  0  0  0  0  0  0  0  0  0  0
   -0.7500   -1.2990    0.0000 N   0  0  0  0  0  0  0  0  0  0  0  0
    3.6836   -0.1729    0.0000 C   0  0  0  0  0  0  0  0  0  0  0  0
    2.3133    0.4372    0.0000 O   0  0  0  0  0  0  0  0  0  0  0  0
    7.6569    8.8300    0.0000 C   0  0  0  0  0  0  0  0  0  0  0  0
    9.0272    9.4401    0.0000 O   0  0  0  0  0  0  0  0  0  0  0  0
  1  2  1  0
  2  3  2  0
  3  4  1  0
  4  5  2  0
  5  6  1  0
  6  7  1  0
  7  8  2  0
  8  9  1  0
  9 10  2  0
 10 11  1  0
 11 12  2  0
 11 13  1  0
 13 14  1  0
 14 15  2  0
 14 16  1  0
 16 17  2  0
 17 18  1  0
 18 19  2  0
 19 20  1  0
 20 21  1  0
 21 22  2  0
 22 23  1  0
 23 24  2  0
 24 25  1  0
 25 26  2  0
 26 27  1  0
 27 28  2  0
 28 29  1  0
 28 30  1  0
 30 31  2  0
 30 32  1  0
 19 33  1  0
 33 34  2  0
  5 35  1  0
 35 36  2  0
 35  2  1  0
 10  6  1  0
 33 16  1  0
 24 20  1  0
 32 25  1  0
M  END
>  <Title>  (485) 
idAASQgen8

$$$$

     RDKit          2D

 40 46  0  0  0  0  0  0  0  0999 V2000
    3.0000    0.0000    0.0000 C   0  0  0  0  0  0  0  0  0  0  0  0
    1.5000    0.0000    0.0000 C   0  0  0  0  0  0  0  0  0  0  0  0
    0.7500   -1.2990    0.0000 C   0  0  0  0  0  0  0  0  0  0  0  0
   -0.7500   -1.2990    0.0000 C   0  0  0  0  0  0  0  0  0  0  0  0
   -1.5000    0.0000    0.0000 C   0  0  0  0  0  0  0  0  0  0  0  0
   -3.0000    0.0000    0.0000 C   0  0  0  0  0  0  0  0  0  0  0  0
   -3.8817   -1.2135    0.0000 N   0  0  0  0  0  0  0  0  0  0  0  0
   -5.3083   -0.7500    0.0000 N   0  0  0  0  0  0  0  0  0  0  0  0
   -5.3083    0.7500    0.0000 N   0  0  0  0  0  0  0  0  0  0  0  0
   -3.8817    1.2135    0.0000 N   0  0  0  0  0  0  0  0  0  0  0  0
   -3.4182    2.6401    0.0000 C   0  0  0  0  0  0  0  0  0  0  0  0
   -1.9509    2.9520    0.0000 C   0  0  0  0  0  0  0  0  0  0  0  0
   -1.4874    4.3786    0.0000 C   0  0  0  0  0  0  0  0  0  0  0  0
   -2.4911    5.4933    0.0000 C   0  0  0  0  0  0  0  0  0  0  0  0
   -3.9583    5.1814    0.0000 C   0  0  0  0  0  0  0  0  0  0  0  0
   -4.4218    3.7548    0.0000 C   0  0  0  0  0  0  0  0  0  0  0  0
   -5.8891    3.4430    0.0000 C   0  0  0  0  0  0  0  0  0  0  0  0
   -6.4992    2.0726    0.0000 C   0  0  0  0  0  0  0  0  0  0  0  0
   -7.9910    2.2294    0.0000 N   0  0  0  0  0  0  0  0  0  0  0  0
   -8.3028    3.6967    0.0000 N   0  0  0  0  0  0  0  0  0  0  0  0
   -7.0038    4.4467    0.0000 N   0  0  0  0  0  0  0  0  0  0  0  0
   -6.8470    5.9384    0.0000 C   0  0  0  0  0  0  0  0  0  0  0  0
   -5.4767    6.5485    0.0000 C   0  0  0  0  0  0  0  0  0  0  0  0
   -5.3199    8.0403    0.0000 C   0  0  0  0  0  0  0  0  0  0  0  0
   -6.5334    8.9220    0.0000 C   0  0  0  0  0  0  0  0  0  0  0  0
   -6.3766   10.4138    0.0000 C   0  0  0  0  0  0  0  0  0  0  0  0
   -7.4913   11.4175    0.0000 N   0  0  0  0  0  0  0  0  0  0  0  0
   -6.8812   12.7878    0.0000 N   0  0  0  0  0  0  0  0  0  0  0  0
   -5.3894   12.6310    0.0000 N   0  0  0  0  0  0  0  0  0  0  0  0
   -5.0776   11.1638    0.0000 N   0  0  0  0  0  0  0  0  0  0  0  0
   -3.7073   10.5537    0.0000 C   0  0  0  0  0  0  0  0  0  0  0  0
   -3.5505    9.0619    0.0000 C   0  0  0  0  0  0  0  0  0  0  0  0
   -2.1801    8.4518    0.0000 C   0  0  0  0  0  0  0  0  0  0  0  0
   -0.9666    9.3335    0.0000 C   0  0  0  0  0  0  0  0  0  0  0  0
   -1.1234   10.8253    0.0000 C   0  0  0  0  0  0  0  0  0  0  0  0
   -2.4937   11.4354    0.0000 C   0  0  0  0  0  0  0  0  0  0  0  0
   -7.9037    8.3119    0.0000 C   0  0  0  0  0  0  0  0  0  0  0  0
   -8.0605    6.8201    0.0000 C   0  0  0  0  0  0  0  0  0  0  0  0
   -0.7500    1.2990    0.0000 C   0  0  0  0  0  0  0  0  0  0  0  0
    0.7500    1.2990    0.0000 C   0  0  0  0  0  0  0  0  0  0  0  0
  1  2  1  0
  2  3  2  0
  3  4  1  0
  4  5  2  0
  5  6  1  0
  6  7  2  0
  7  8  1  0
  8  9  2  0
  9 10  1  0
 10 11  1  0
 11 12  1  0
 12 13  1  0
 13 14  1  0
 14 15  1  0
 15 16  1  0
 16 17  1  0
 17 18  2  0
 18 19  1  0
 19 20  2  0
 20 21  1  0
 21 22  1  0
 22 23  2  0
 23 24  1  0
 24 25  2  0
 25 26  1  0
 26 27  2  0
 27 28  1  0
 28 29  2  0
 29 30  1  0
 30 31  1  0
 31 32  2  0
 32 33  1  0
 33 34  2  0
 34 35  1  0
 35 36  2  0
 25 37  1  0
 37 38  2  0
  5 39  1  0
 39 40  2  0
 40  2  1  0
 10  6  1  0
 16 11  1  0
 21 17  1  0
 38 22  1  0
 30 26  1  0
 36 31  1  0
M  END
>  <Title>  (486) 
idAASRgen8

$$$$

     RDKit          2D

 29 31  0  0  0  0  0  0  0  0999 V2000
   -0.7500   -6.4952    0.0000 O   0  0  0  0  0  0  0  0  0  0  0  0
    0.7500   -6.4952    0.0000 C   0  0  0  0  0  0  0  0  0  0  0  0
    1.5000   -5.1962    0.0000 N   0  0  0  0  0  0  0  0  0  0  0  0
    0.7500   -3.8971    0.0000 C   0  0  0  0  0  0  0  0  0  0  0  0
    1.5000   -2.5981    0.0000 C   0  0  0  0  0  0  0  0  0  0  0  0
    0.7500   -1.2990    0.0000 C   0  0  0  0  0  0  0  0  0  0  0  0
    1.5000    0.0000    0.0000 C   0  0  0  0  0  0  0  0  0  0  0  0
    0.7500    1.2990    0.0000 C   0  0  0  0  0  0  0  0  0  0  0  0
   -0.7500    1.2990    0.0000 C   0  0  0  0  0  0  0  0  0  0  0  0
   -1.5000    0.0000    0.0000 C   0  0  0  0  0  0  0  0  0  0  0  0
   -0.7500   -1.2990    0.0000 C   0  0  0  0  0  0  0  0  0  0  0  0
    1.5000   -7.7942    0.0000 N   0  0  0  0  0  0  0  0  0  0  0  0
    0.7500   -9.0933    0.0000 C   0  0  0  0  0  0  0  0  0  0  0  0
   -0.7500   -9.0933    0.0000 O   0  0  0  0  0  0  0  0  0  0  0  0
    1.5000  -10.3923    0.0000 C   0  0  0  0  0  0  0  0  0  0  0  0
    0.7500  -11.6913    0.0000 C   0  0  0  0  0  0  0  0  0  0  0  0
    1.5000  -12.9904    0.0000 C   0  0  0  0  0  0  0  0  0  0  0  0
    3.0000  -12.9904    0.0000 C   0  0  0  0  0  0  0  0  0  0  0  0
    3.7500  -14.2894    0.0000 C   0  0  0  0  0  0  0  0  0  0  0  0
    5.2500  -14.2894    0.0000 O   0  0  0  0  0  0  0  0  0  0  0  0
    3.0000  -15.5885    0.0000 N   0  0  0  0  0  0  0  0  0  0  0  0
    3.7500  -16.8875    0.0000 C   0  0  0  0  0  0  0  0  0  0  0  0
    5.2418  -17.0443    0.0000 N   0  0  0  0  0  0  0  0  0  0  0  0
    5.5537  -18.5115    0.0000 N   0  0  0  0  0  0  0  0  0  0  0  0
    4.2546  -19.2615    0.0000 N   0  0  0  0  0  0  0  0  0  0  0  0
    3.1399  -18.2578    0.0000 N   0  0  0  0  0  0  0  0  0  0  0  0
    3.7500  -11.6913    0.0000 C   0  0  0  0  0  0  0  0  0  0  0  0
    5.2500  -11.6913    0.0000 O   0  0  0  0  0  0  0  0  0  0  0  0
    3.0000  -10.3923    0.0000 N   0  0  0  0  0  0  0  0  0  0  0  0
  1  2  2  0
  2  3  1  0
  3  4  1  0
  4  5  1  0
  5  6  1  0
  6  7  2  0
  7  8  1  0
  8  9  2  0
  9 10  1  0
 10 11  2  0
  2 12  1  0
 12 13  1  0
 13 14  2  0
 13 15  1  0
 15 16  2  0
 16 17  1  0
 17 18  2  0
 18 19  1  0
 19 20  2  0
 19 21  1  0
 21 22  1  0
 22 23  2  0
 23 24  1  0
 24 25  2  0
 25 26  1  0
 18 27  1  0
 27 28  2  0
 27 29  1  0
 11  6  1  0
 29 15  1  0
 26 22  1  0
M  END
>  <Title>  (487) 
idAASSgen8

$$$$

     RDKit          2D

  8  8  0  0  0  0  0  0  0  0999 V2000
    3.0000    0.0000    0.0000 O   0  0  0  0  0  0  0  0  0  0  0  0
    1.5000    0.0000    0.0000 C   0  0  0  0  0  0  0  0  0  0  0  0
    0.7500   -1.2990    0.0000 C   0  0  0  0  0  0  0  0  0  0  0  0
   -0.7500   -1.2990    0.0000 C   0  0  0  0  0  0  0  0  0  0  0  0
   -1.5000    0.0000    0.0000 C   0  0  0  0  0  0  0  0  0  0  0  0
   -0.7500    1.2990    0.0000 C   0  0  0  0  0  0  0  0  0  0  0  0
    0.7500    1.2990    0.0000 C   0  0  0  0  0  0  0  0  0  0  0  0
    1.5000    2.5981    0.0000 O   0  0  0  0  0  0  0  0  0  0  0  0
  1  2  1  0
  2  3  2  0
  3  4  1  0
  4  5  2  0
  5  6  1  0
  6  7  2  0
  7  8  1  0
  7  2  1  0
M  END
>  <Title>  (488) 
idAASTgen8

$$$$

     RDKit          2D

 33 37  0  0  0  0  0  0  0  0999 V2000
    3.0000    0.0000    0.0000 C   0  0  0  0  0  0  0  0  0  0  0  0
    1.5000    0.0000    0.0000 C   0  0  0  0  0  0  0  0  0  0  0  0
    0.7500   -1.2990    0.0000 C   0  0  0  0  0  0  0  0  0  0  0  0
   -0.7500   -1.2990    0.0000 C   0  0  0  0  0  0  0  0  0  0  0  0
   -1.5000    0.0000    0.0000 C   0  0  0  0  0  0  0  0  0  0  0  0
   -3.0000    0.0000    0.0000 C   0  0  0  0  0  0  0  0  0  0  0  0
   -3.8817   -1.2135    0.0000 N   0  0  0  0  0  0  0  0  0  0  0  0
   -5.3083   -0.7500    0.0000 N   0  0  0  0  0  0  0  0  0  0  0  0
   -5.3083    0.7500    0.0000 N   0  0  0  0  0  0  0  0  0  0  0  0
   -3.8817    1.2135    0.0000 N   0  0  0  0  0  0  0  0  0  0  0  0
   -3.4182    2.6401    0.0000 C   0  0  0  0  0  0  0  0  0  0  0  0
   -1.9509    2.9520    0.0000 C   0  0  0  0  0  0  0  0  0  0  0  0
   -1.4874    4.3786    0.0000 C   0  0  0  0  0  0  0  0  0  0  0  0
   -2.4911    5.4933    0.0000 C   0  0  0  0  0  0  0  0  0  0  0  0
   -3.9583    5.1814    0.0000 C   0  0  0  0  0  0  0  0  0  0  0  0
   -4.4218    3.7548    0.0000 C   0  0  0  0  0  0  0  0  0  0  0  0
   -5.8891    3.4430    0.0000 C   0  0  0  0  0  0  0  0  0  0  0  0
   -6.4992    2.0726    0.0000 N   0  0  0  0  0  0  0  0  0  0  0  0
   -7.9910    2.2294    0.0000 N   0  0  0  0  0  0  0  0  0  0  0  0
   -8.3028    3.6967    0.0000 N   0  0  0  0  0  0  0  0  0  0  0  0
   -7.0038    4.4467    0.0000 N   0  0  0  0  0  0  0  0  0  0  0  0
   -6.8470    5.9384    0.0000 C   0  0  0  0  0  0  0  0  0  0  0  0
   -5.4767    6.5485    0.0000 C   0  0  0  0  0  0  0  0  0  0  0  0
   -5.3199    8.0403    0.0000 C   0  0  0  0  0  0  0  0  0  0  0  0
   -6.5334    8.9220    0.0000 C   0  0  0  0  0  0  0  0  0  0  0  0
   -6.3766   10.4138    0.0000 C   0  0  0  0  0  0  0  0  0  0  0  0
   -7.5901   11.2955    0.0000 O   0  0  0  0  0  0  0  0  0  0  0  0
   -5.0063   11.0239    0.0000 N   0  0  0  0  0  0  0  0  0  0  0  0
   -4.8495   12.5157    0.0000 O   0  0  0  0  0  0  0  0  0  0  0  0
   -7.9037    8.3119    0.0000 C   0  0  0  0  0  0  0  0  0  0  0  0
   -8.0605    6.8201    0.0000 C   0  0  0  0  0  0  0  0  0  0  0  0
   -0.7500    1.2990    0.0000 C   0  0  0  0  0  0  0  0  0  0  0  0
    0.7500    1.2990    0.0000 C   0  0  0  0  0  0  0  0  0  0  0  0
  1  2  1  0
  2  3  2  0
  3  4  1  0
  4  5  2  0
  5  6  1  0
  6  7  2  0
  7  8  1  0
  8  9  2  0
  9 10  1  0
 10 11  1  0
 11 12  1  0
 12 13  1  0
 13 14  1  0
 14 15  1  0
 15 16  1  0
 16 17  1  0
 17 18  2  0
 18 19  1  0
 19 20  2  0
 20 21  1  0
 21 22  1  0
 22 23  2  0
 23 24  1  0
 24 25  2  0
 25 26  1  0
 26 27  2  0
 26 28  1  0
 28 29  1  0
 25 30  1  0
 30 31  1  0
  5 32  1  0
 32 33  2  0
 33  2  1  0
 10  6  1  0
 16 11  1  0
 21 17  1  0
 31 22  1  0
M  END
>  <Title>  (489) 
idAASUgen8

$$$$

     RDKit          2D

 24 24  0  0  0  0  0  0  0  0999 V2000
   23.0260  -11.6913    0.0000 C   0  0  0  0  0  0  0  0  0  0  0  0
   21.5260  -11.6913    0.0000 C   0  0  0  0  0  0  0  0  0  0  0  0
   20.7760  -10.3923    0.0000 C   0  0  0  0  0  0  0  0  0  0  0  0
   19.2760  -10.3923    0.0000 C   0  0  0  0  0  0  0  0  0  0  0  0
   18.5260   -9.0933    0.0000 C   0  0  0  0  0  0  0  0  0  0  0  0
   17.0260   -9.0933    0.0000 C   0  0  0  0  0  0  0  0  0  0  0  0
   16.2760   -7.7942    0.0000 C   0  0  0  0  0  0  0  0  0  0  0  0
   14.7760   -7.7942    0.0000 C   0  0  0  0  0  0  0  0  0  0  0  0
   14.0260   -6.4952    0.0000 C   0  0  0  0  0  0  0  0  0  0  0  0
   12.5260   -6.4952    0.0000 C   0  0  0  0  0  0  0  0  0  0  0  0
   11.7760   -5.1962    0.0000 C   0  0  0  0  0  0  0  0  0  0  0  0
   10.2760   -5.1962    0.0000 C   0  0  0  0  0  0  0  0  0  0  0  0
    9.5260   -3.8971    0.0000 C   0  0  0  0  0  0  0  0  0  0  0  0
    8.0260   -3.8971    0.0000 C   0  0  0  0  0  0  0  0  0  0  0  0
    7.2760   -2.5981    0.0000 C   0  0  0  0  0  0  0  0  0  0  0  0
    5.7760   -2.5981    0.0000 C   0  0  0  0  0  0  0  0  0  0  0  0
    5.0260   -1.2990    0.0000 C   0  0  0  0  0  0  0  0  0  0  0  0
    3.5260   -1.2990    0.0000 C   0  0  0  0  0  0  0  0  0  0  0  0
    2.7760    0.0000    0.0000 C   0  0  0  0  0  0  0  0  0  0  0  0
    1.2760    0.0000    0.0000 C   0  0  0  0  0  0  0  0  0  0  0  0
    0.3943    1.2135    0.0000 C   0  0  0  0  0  0  0  0  0  0  0  0
   -1.0323    0.7500    0.0000 C   0  0  0  0  0  0  0  0  0  0  0  0
   -1.0323   -0.7500    0.0000 C   0  0  0  0  0  0  0  0  0  0  0  0
    0.3943   -1.2135    0.0000 C   0  0  0  0  0  0  0  0  0  0  0  0
  1  2  2  0
  2  3  1  0
  3  4  2  3
  4  5  1  0
  5  6  2  3
  6  7  1  0
  7  8  2  3
  8  9  1  0
  9 10  2  3
 10 11  1  0
 11 12  2  3
 12 13  1  0
 13 14  2  3
 14 15  1  0
 15 16  2  3
 16 17  1  0
 17 18  2  3
 18 19  1  0
 19 20  2  3
 20 21  1  0
 21 22  2  0
 22 23  1  0
 23 24  2  0
 24 20  1  0
M  END
>  <Title>  (490) 
idAASVgen8

$$$$

     RDKit          2D

 18 19  0  0  0  0  0  0  0  0999 V2000
    6.0745    0.4037    0.0000 O   0  0  0  0  0  0  0  0  0  0  0  0
    4.7042   -0.2064    0.0000 C   0  0  0  0  0  0  0  0  0  0  0  0
    4.5474   -1.6982    0.0000 C   0  0  0  0  0  0  0  0  0  0  0  0
    5.7609   -2.5798    0.0000 C   0  0  0  0  0  0  0  0  0  0  0  0
    5.6041   -4.0716    0.0000 C   0  0  0  0  0  0  0  0  0  0  0  0
    4.2338   -4.6817    0.0000 C   0  0  0  0  0  0  0  0  0  0  0  0
    3.0203   -3.8000    0.0000 C   0  0  0  0  0  0  0  0  0  0  0  0
    3.1771   -2.3083    0.0000 C   0  0  0  0  0  0  0  0  0  0  0  0
    1.9635   -1.4266    0.0000 C   0  0  0  0  0  0  0  0  0  0  0  0
    2.4271    0.0000    0.0000 C   0  0  0  0  0  0  0  0  0  0  0  0
    1.9635    1.4266    0.0000 C   0  0  0  0  0  0  0  0  0  0  0  0
    0.7500    2.3083    0.0000 C   0  0  0  0  0  0  0  0  0  0  0  0
   -0.7500    2.3083    0.0000 C   0  0  0  0  0  0  0  0  0  0  0  0
   -1.9635    1.4266    0.0000 C   0  0  0  0  0  0  0  0  0  0  0  0
   -2.4271    0.0000    0.0000 C   0  0  0  0  0  0  0  0  0  0  0  0
   -1.9635   -1.4266    0.0000 C   0  0  0  0  0  0  0  0  0  0  0  0
   -0.7500   -2.3083    0.0000 C   0  0  0  0  0  0  0  0  0  0  0  0
    0.7500   -2.3083    0.0000 C   0  0  0  0  0  0  0  0  0  0  0  0
  1  2  1  0
  2  3  1  0
  3  4  2  0
  4  5  1  0
  5  6  2  0
  6  7  1  0
  7  8  2  0
  8  9  1  0
  9 10  2  0
 10 11  1  0
 11 12  2  0
 12 13  1  0
 13 14  2  0
 14 15  1  0
 15 16  2  0
 16 17  1  0
 17 18  2  0
  8  3  1  0
 18  9  1  0
M  END
>  <Title>  (491) 
idAASWgen8

$$$$

     RDKit          2D

 11 11  0  0  0  0  0  0  0  0999 V2000
    3.6929    0.0000    0.0000 C   0  0  0  0  0  0  0  0  0  0  0  0
    2.1929    0.0000    0.0000 C   0  0  0  0  0  0  0  0  0  0  0  0
    1.6798    1.4095    0.0000 C   0  0  0  0  0  0  0  0  0  0  0  0
    0.3808    2.1595    0.0000 C   0  0  0  0  0  0  0  0  0  0  0  0
   -1.0964    1.8991    0.0000 C   0  0  0  0  0  0  0  0  0  0  0  0
   -2.0606    0.7500    0.0000 C   0  0  0  0  0  0  0  0  0  0  0  0
   -2.0606   -0.7500    0.0000 C   0  0  0  0  0  0  0  0  0  0  0  0
   -3.4701   -1.2630    0.0000 C   0  0  0  0  0  0  0  0  0  0  0  0
   -1.0964   -1.8991    0.0000 C   0  0  0  0  0  0  0  0  0  0  0  0
    0.3808   -2.1595    0.0000 C   0  0  0  0  0  0  0  0  0  0  0  0
    1.6798   -1.4095    0.0000 C   0  0  0  0  0  0  0  0  0  0  0  0
  1  2  1  0
  2  3  2  0
  3  4  1  0
  4  5  2  0
  5  6  1  0
  6  7  2  0
  7  8  1  0
  7  9  1  0
  9 10  1  0
 10 11  1  0
 11  2  1  0
M  END
>  <Title>  (492) 
idAASXgen8

$$$$

     RDKit          2D

 15 15  0  0  0  0  0  0  0  0999 V2000
    5.1478   -1.2990    0.0000 C   0  0  0  0  0  0  0  0  0  0  0  0
    4.3978    0.0000    0.0000 O   0  0  0  0  0  0  0  0  0  0  0  0
    2.8978    0.0000    0.0000 C   0  0  0  0  0  0  0  0  0  0  0  0
    2.5095   -1.4489    0.0000 C   0  0  0  0  0  0  0  0  0  0  0  0
    1.4489   -2.5095    0.0000 C   0  0  0  0  0  0  0  0  0  0  0  0
   -0.0000   -2.8978    0.0000 C   0  0  0  0  0  0  0  0  0  0  0  0
   -1.4489   -2.5095    0.0000 C   0  0  0  0  0  0  0  0  0  0  0  0
   -2.5095   -1.4489    0.0000 C   0  0  0  0  0  0  0  0  0  0  0  0
   -2.8978    0.0000    0.0000 C   0  0  0  0  0  0  0  0  0  0  0  0
   -2.5095    1.4489    0.0000 C   0  0  0  0  0  0  0  0  0  0  0  0
   -1.4489    2.5095    0.0000 C   0  0  0  0  0  0  0  0  0  0  0  0
    0.0000    2.8978    0.0000 C   0  0  0  0  0  0  0  0  0  0  0  0
    1.4489    2.5095    0.0000 C   0  0  0  0  0  0  0  0  0  0  0  0
    2.5095    1.4489    0.0000 C   0  0  0  0  0  0  0  0  0  0  0  0
    3.8086    2.1989    0.0000 N   0  0  0  0  0  0  0  0  0  0  0  0
  1  2  1  0
  2  3  1  0
  3  4  2  0
  4  5  1  0
  5  6  2  0
  6  7  1  0
  7  8  2  0
  8  9  1  0
  9 10  2  0
 10 11  1  0
 11 12  2  0
 12 13  1  0
 13 14  2  0
 14 15  1  0
 14  3  1  0
M  END
>  <Title>  (493) 
idAASYgen8

$$$$

     RDKit          2D

 48 55  0  0  0  0  0  0  0  0999 V2000
    3.0000    0.0000    0.0000 C   0  0  0  0  0  0  0  0  0  0  0  0
    1.5000    0.0000    0.0000 C   0  0  0  0  0  0  0  0  0  0  0  0
    0.7500   -1.2990    0.0000 C   0  0  0  0  0  0  0  0  0  0  0  0
   -0.7500   -1.2990    0.0000 C   0  0  0  0  0  0  0  0  0  0  0  0
   -1.5000    0.0000    0.0000 C   0  0  0  0  0  0  0  0  0  0  0  0
   -3.0000    0.0000    0.0000 C   0  0  0  0  0  0  0  0  0  0  0  0
   -3.8817   -1.2135    0.0000 N   0  0  0  0  0  0  0  0  0  0  0  0
   -5.3083   -0.7500    0.0000 N   0  0  0  0  0  0  0  0  0  0  0  0
   -5.3083    0.7500    0.0000 N   0  0  0  0  0  0  0  0  0  0  0  0
   -3.8817    1.2135    0.0000 N   0  0  0  0  0  0  0  0  0  0  0  0
   -3.4182    2.6401    0.0000 C   0  0  0  0  0  0  0  0  0  0  0  0
   -1.9509    2.9520    0.0000 C   0  0  0  0  0  0  0  0  0  0  0  0
   -1.4874    4.3786    0.0000 C   0  0  0  0  0  0  0  0  0  0  0  0
   -2.4911    5.4933    0.0000 C   0  0  0  0  0  0  0  0  0  0  0  0
   -2.0276    6.9199    0.0000 C   0  0  0  0  0  0  0  0  0  0  0  0
   -2.9093    8.1334    0.0000 C   0  0  0  0  0  0  0  0  0  0  0  0
   -2.0276    9.3469    0.0000 N   0  0  0  0  0  0  0  0  0  0  0  0
   -0.6010    8.8834    0.0000 N   0  0  0  0  0  0  0  0  0  0  0  0
   -0.6010    7.3834    0.0000 N   0  0  0  0  0  0  0  0  0  0  0  0
    0.6125    6.5017    0.0000 C   0  0  0  0  0  0  0  0  0  0  0  0
    0.4557    5.0099    0.0000 C   0  0  0  0  0  0  0  0  0  0  0  0
    1.6693    4.1283    0.0000 C   0  0  0  0  0  0  0  0  0  0  0  0
    3.0396    4.7384    0.0000 C   0  0  0  0  0  0  0  0  0  0  0  0
    3.1964    6.2301    0.0000 N   0  0  0  0  0  0  0  0  0  0  0  0
    1.9829    7.1118    0.0000 C   0  0  0  0  0  0  0  0  0  0  0  0
    2.1396    8.6036    0.0000 C   0  0  0  0  0  0  0  0  0  0  0  0
    1.0249    9.6073    0.0000 N   0  0  0  0  0  0  0  0  0  0  0  0
    1.6350   10.9776    0.0000 N   0  0  0  0  0  0  0  0  0  0  0  0
    3.1268   10.8208    0.0000 N   0  0  0  0  0  0  0  0  0  0  0  0
    3.4387    9.3536    0.0000 N   0  0  0  0  0  0  0  0  0  0  0  0
    4.8090    8.7435    0.0000 C   0  0  0  0  0  0  0  0  0  0  0  0
    4.9658    7.2517    0.0000 C   0  0  0  0  0  0  0  0  0  0  0  0
    6.3361    6.6416    0.0000 C   0  0  0  0  0  0  0  0  0  0  0  0
    7.5496    7.5233    0.0000 C   0  0  0  0  0  0  0  0  0  0  0  0
    7.3928    9.0151    0.0000 C   0  0  0  0  0  0  0  0  0  0  0  0
    6.0225    9.6252    0.0000 C   0  0  0  0  0  0  0  0  0  0  0  0
   -3.9583    5.1814    0.0000 C   0  0  0  0  0  0  0  0  0  0  0  0
   -4.4218    3.7548    0.0000 C   0  0  0  0  0  0  0  0  0  0  0  0
   -5.8891    3.4430    0.0000 C   0  0  0  0  0  0  0  0  0  0  0  0
   -6.8928    4.5577    0.0000 C   0  0  0  0  0  0  0  0  0  0  0  0
   -8.3600    4.2458    0.0000 C   0  0  0  0  0  0  0  0  0  0  0  0
   -8.8235    2.8192    0.0000 C   0  0  0  0  0  0  0  0  0  0  0  0
  -10.2907    2.5074    0.0000 C   0  0  0  0  0  0  0  0  0  0  0  0
   -7.8198    1.7045    0.0000 C   0  0  0  0  0  0  0  0  0  0  0  0
   -8.2833    0.2779    0.0000 O   0  0  0  0  0  0  0  0  0  0  0  0
   -6.3526    2.0164    0.0000 N   0  0  0  0  0  0  0  0  0  0  0  0
   -0.7500    1.2990    0.0000 C   0  0  0  0  0  0  0  0  0  0  0  0
    0.7500    1.2990    0.0000 C   0  0  0  0  0  0  0  0  0  0  0  0
  1  2  1  0
  2  3  2  0
  3  4  1  0
  4  5  2  0
  5  6  1  0
  6  7  2  0
  7  8  1  0
  8  9  2  0
  9 10  1  0
 10 11  1  0
 11 12  2  0
 12 13  1  0
 13 14  2  0
 14 15  1  0
 15 16  2  0
 16 17  1  0
 17 18  2  0
 18 19  1  0
 19 20  1  0
 20 21  2  0
 21 22  1  0
 22 23  2  0
 23 24  1  0
 24 25  2  0
 25 26  1  0
 26 27  2  0
 27 28  1  0
 28 29  2  0
 29 30  1  0
 30 31  1  0
 31 32  2  0
 32 33  1  0
 33 34  2  0
 34 35  1  0
 35 36  2  0
 14 37  1  0
 37 38  2  0
 38 39  1  0
 39 40  2  0
 40 41  1  0
 41 42  2  0
 42 43  1  0
 42 44  1  0
 44 45  2  0
 44 46  1  0
  5 47  1  0
 47 48  2  0
 48  2  1  0
 10  6  1  0
 38 11  1  0
 46 39  1  0
 19 15  1  0
 25 20  1  0
 30 26  1  0
 36 31  1  0
M  END
>  <Title>  (494) 
idAASZgen8

$$$$

     RDKit          2D

 21 23  0  0  0  0  0  0  0  0999 V2000
    3.0000    0.0000    0.0000 C   0  0  0  0  0  0  0  0  0  0  0  0
    1.5000    0.0000    0.0000 C   0  0  0  0  0  0  0  0  0  0  0  0
    0.7500   -1.2990    0.0000 C   0  0  0  0  0  0  0  0  0  0  0  0
   -0.7500   -1.2990    0.0000 C   0  0  0  0  0  0  0  0  0  0  0  0
   -1.5000    0.0000    0.0000 C   0  0  0  0  0  0  0  0  0  0  0  0
   -3.0000    0.0000    0.0000 C   0  0  0  0  0  0  0  0  0  0  0  0
   -3.8817   -1.2135    0.0000 N   0  0  0  0  0  0  0  0  0  0  0  0
   -5.3083   -0.7500    0.0000 N   0  0  0  0  0  0  0  0  0  0  0  0
   -5.3083    0.7500    0.0000 N   0  0  0  0  0  0  0  0  0  0  0  0
   -3.8817    1.2135    0.0000 N   0  0  0  0  0  0  0  0  0  0  0  0
   -3.4182    2.6401    0.0000 C   0  0  0  0  0  0  0  0  0  0  0  0
   -1.9509    2.9520    0.0000 C   0  0  0  0  0  0  0  0  0  0  0  0
   -1.4874    4.3786    0.0000 C   0  0  0  0  0  0  0  0  0  0  0  0
   -2.4911    5.4933    0.0000 C   0  0  0  0  0  0  0  0  0  0  0  0
   -3.9583    5.1814    0.0000 C   0  0  0  0  0  0  0  0  0  0  0  0
   -4.9620    6.2961    0.0000 C   0  0  0  0  0  0  0  0  0  0  0  0
   -4.4218    3.7548    0.0000 C   0  0  0  0  0  0  0  0  0  0  0  0
   -5.8891    3.4430    0.0000 O   0  0  0  0  0  0  0  0  0  0  0  0
   -0.7500    1.2990    0.0000 N   0  0  0  0  0  0  0  0  0  0  0  0
    0.7500    1.2990    0.0000 C   0  0  0  0  0  0  0  0  0  0  0  0
    1.5000    2.5981    0.0000 O   0  0  0  0  0  0  0  0  0  0  0  0
  1  2  1  0
  2  3  2  0
  3  4  1  0
  4  5  2  0
  5  6  1  0
  6  7  2  0
  7  8  1  0
  8  9  2  0
  9 10  1  0
 10 11  1  0
 11 12  1  0
 12 13  1  0
 13 14  1  0
 14 15  1  0
 15 16  1  0
 15 17  1  0
 17 18  2  0
  5 19  1  0
 19 20  1  0
 20 21  2  0
 20  2  1  0
 10  6  1  0
 17 11  1  0
M  END
>  <Title>  (495) 
idAATAgen8

$$$$

     RDKit          2D

  9  9  0  0  0  0  0  0  0  0999 V2000
    3.2286   -0.0000    0.0000 C   0  0  0  0  0  0  0  0  0  0  0  0
    1.7286    0.0000    0.0000 C   0  0  0  0  0  0  0  0  0  0  0  0
    1.0777    1.3515    0.0000 C   0  0  0  0  0  0  0  0  0  0  0  0
   -0.3846    1.6852    0.0000 C   0  0  0  0  0  0  0  0  0  0  0  0
   -1.5574    0.7500    0.0000 C   0  0  0  0  0  0  0  0  0  0  0  0
   -1.5574   -0.7500    0.0000 C   0  0  0  0  0  0  0  0  0  0  0  0
   -0.3846   -1.6852    0.0000 N   0  0  0  0  0  0  0  0  0  0  0  0
    1.0777   -1.3515    0.0000 C   0  0  0  0  0  0  0  0  0  0  0  0
    2.0130   -2.5242    0.0000 O   0  0  0  0  0  0  0  0  0  0  0  0
  1  2  1  0
  2  3  2  0
  3  4  1  0
  4  5  2  0
  5  6  2  0
  6  7  2  0
  7  8  1  0
  8  9  2  0
  8  2  1  0
M  END
>  <Title>  (496) 
idAATBgen8

$$$$

     RDKit          2D

 23 25  0  0  0  0  0  0  0  0999 V2000
   -0.0000   -3.4598    0.0000 C   0  0  0  0  0  0  0  0  0  0  0  0
   -0.0000   -1.9598    0.0000 C   0  0  0  0  0  0  0  0  0  0  0  0
    1.3858   -1.3858    0.0000 C   0  0  0  0  0  0  0  0  0  0  0  0
    1.9598   -0.0000    0.0000 C   0  0  0  0  0  0  0  0  0  0  0  0
    1.3858    1.3858    0.0000 C   0  0  0  0  0  0  0  0  0  0  0  0
    0.0000    1.9598    0.0000 N   0  0  0  0  0  0  0  0  0  0  0  0
   -1.3858    1.3858    0.0000 C   0  0  0  0  0  0  0  0  0  0  0  0
   -2.4465    2.4465    0.0000 C   0  0  0  0  0  0  0  0  0  0  0  0
   -3.9280    2.2118    0.0000 C   0  0  0  0  0  0  0  0  0  0  0  0
   -4.6090    3.5483    0.0000 N   0  0  0  0  0  0  0  0  0  0  0  0
   -3.5483    4.6090    0.0000 N   0  0  0  0  0  0  0  0  0  0  0  0
   -2.2118    3.9280    0.0000 N   0  0  0  0  0  0  0  0  0  0  0  0
   -0.8753    4.6090    0.0000 C   0  0  0  0  0  0  0  0  0  0  0  0
    0.3827    3.7920    0.0000 C   0  0  0  0  0  0  0  0  0  0  0  0
    1.7192    4.4730    0.0000 C   0  0  0  0  0  0  0  0  0  0  0  0
    1.7977    5.9710    0.0000 C   0  0  0  0  0  0  0  0  0  0  0  0
    3.1342    6.6520    0.0000 C   0  0  0  0  0  0  0  0  0  0  0  0
    0.5397    6.7879    0.0000 C   0  0  0  0  0  0  0  0  0  0  0  0
    0.6182    8.2859    0.0000 O   0  0  0  0  0  0  0  0  0  0  0  0
   -0.7968    6.1069    0.0000 N   0  0  0  0  0  0  0  0  0  0  0  0
   -1.9598    0.0000    0.0000 C   0  0  0  0  0  0  0  0  0  0  0  0
   -3.4598    0.0000    0.0000 O   0  0  0  0  0  0  0  0  0  0  0  0
   -1.3858   -1.3858    0.0000 N   0  0  0  0  0  0  0  0  0  0  0  0
  1  2  1  0
  2  3  2  0
  3  4  1  0
  4  5  2  0
  5  6  1  0
  6  7  2  0
  7  8  1  0
  8  9  2  0
  9 10  1  0
 10 11  2  0
 11 12  1  0
 12 13  1  0
 13 14  2  0
 14 15  1  0
 15 16  2  0
 16 17  1  0
 16 18  1  0
 18 19  2  0
 18 20  1  0
  7 21  1  0
 21 22  2  0
 21 23  1  0
 23  2  1  0
 12  8  1  0
 20 13  1  0
M  END
>  <Title>  (497) 
idAATCgen8

$$$$

     RDKit          2D

 62 71  0  0  0  0  0  0  0  0999 V2000
    5.8261    3.6381    0.0000 C   0  0  0  0  0  0  0  0  0  0  0  0
    4.3637    3.9719    0.0000 C   0  0  0  0  0  0  0  0  0  0  0  0
    3.7129    2.6205    0.0000 C   0  0  0  0  0  0  0  0  0  0  0  0
    2.5401    1.6852    0.0000 C   0  0  0  0  0  0  0  0  0  0  0  0
    1.0777    1.3515    0.0000 C   0  0  0  0  0  0  0  0  0  0  0  0
    1.7286    0.0000    0.0000 C   0  0  0  0  0  0  0  0  0  0  0  0
    1.0777   -1.3515    0.0000 C   0  0  0  0  0  0  0  0  0  0  0  0
   -0.3846   -1.6852    0.0000 C   0  0  0  0  0  0  0  0  0  0  0  0
   -1.5574   -0.7500    0.0000 C   0  0  0  0  0  0  0  0  0  0  0  0
   -1.5574    0.7500    0.0000 C   0  0  0  0  0  0  0  0  0  0  0  0
   -0.3846    1.6852    0.0000 C   0  0  0  0  0  0  0  0  0  0  0  0
   -1.5574    2.6205    0.0000 N   0  0  0  0  0  0  0  0  0  0  0  0
   -2.4024    1.3811    0.0000 N   0  0  0  0  0  0  0  0  0  0  0  0
   -3.8982    1.4932    0.0000 N   0  0  0  0  0  0  0  0  0  0  0  0
   -4.5490    2.8447    0.0000 N   0  0  0  0  0  0  0  0  0  0  0  0
   -3.7040    4.0840    0.0000 N   0  0  0  0  0  0  0  0  0  0  0  0
   -2.2082    3.9719    0.0000 N   0  0  0  0  0  0  0  0  0  0  0  0
   -2.2082    5.4719    0.0000 C   0  0  0  0  0  0  0  0  0  0  0  0
   -1.5574    6.8234    0.0000 C   0  0  0  0  0  0  0  0  0  0  0  0
   -0.3846    7.7586    0.0000 C   0  0  0  0  0  0  0  0  0  0  0  0
    1.0777    8.0924    0.0000 C   0  0  0  0  0  0  0  0  0  0  0  0
    2.5401    7.7586    0.0000 N   0  0  0  0  0  0  0  0  0  0  0  0
    3.7129    6.8234    0.0000 C   0  0  0  0  0  0  0  0  0  0  0  0
    4.8856    7.7586    0.0000 O   0  0  0  0  0  0  0  0  0  0  0  0
    4.3637    5.4719    0.0000 C   0  0  0  0  0  0  0  0  0  0  0  0
    1.1970    9.6132    0.0000 C   0  0  0  0  0  0  0  0  0  0  0  0
    2.6954    9.6805    0.0000 N   0  0  0  0  0  0  0  0  0  0  0  0
    3.0945   11.1265    0.0000 N   0  0  0  0  0  0  0  0  0  0  0  0
    1.8426   11.9528    0.0000 N   0  0  0  0  0  0  0  0  0  0  0  0
    0.6699   11.0176    0.0000 N   0  0  0  0  0  0  0  0  0  0  0  0
   -0.3828   12.0861    0.0000 C   0  0  0  0  0  0  0  0  0  0  0  0
    0.9162   12.8361    0.0000 C   0  0  0  0  0  0  0  0  0  0  0  0
    1.1398   14.3194    0.0000 C   0  0  0  0  0  0  0  0  0  0  0  0
    0.1195   15.4190    0.0000 C   0  0  0  0  0  0  0  0  0  0  0  0
   -1.3763   15.3069    0.0000 C   0  0  0  0  0  0  0  0  0  0  0  0
   -2.2212   14.0675    0.0000 C   0  0  0  0  0  0  0  0  0  0  0  0
   -1.7791   12.6342    0.0000 C   0  0  0  0  0  0  0  0  0  0  0  0
   -3.2776   12.5669    0.0000 C   0  0  0  0  0  0  0  0  0  0  0  0
   -3.1879   14.0642    0.0000 C   0  0  0  0  0  0  0  0  0  0  0  0
   -4.4398   14.8905    0.0000 C   0  0  0  0  0  0  0  0  0  0  0  0
   -5.7813   14.2196    0.0000 C   0  0  0  0  0  0  0  0  0  0  0  0
   -5.8710   12.7222    0.0000 C   0  0  0  0  0  0  0  0  0  0  0  0
   -4.6192   11.8959    0.0000 C   0  0  0  0  0  0  0  0  0  0  0  0
   -5.5718   10.7373    0.0000 C   0  0  0  0  0  0  0  0  0  0  0  0
   -6.8237   11.5636    0.0000 N   0  0  0  0  0  0  0  0  0  0  0  0
   -7.9965   10.6284    0.0000 N   0  0  0  0  0  0  0  0  0  0  0  0
   -7.4694    9.2240    0.0000 N   0  0  0  0  0  0  0  0  0  0  0  0
   -5.9709    9.2913    0.0000 N   0  0  0  0  0  0  0  0  0  0  0  0
   -5.7473    7.8081    0.0000 C   0  0  0  0  0  0  0  0  0  0  0  0
   -7.0234    7.0196    0.0000 C   0  0  0  0  0  0  0  0  0  0  0  0
   -7.2024    5.5303    0.0000 C   0  0  0  0  0  0  0  0  0  0  0  0
   -6.1498    4.4617    0.0000 C   0  0  0  0  0  0  0  0  0  0  0  0
   -6.6557    3.0496    0.0000 C   0  0  0  0  0  0  0  0  0  0  0  0
   -8.1316    2.7818    0.0000 C   0  0  0  0  0  0  0  0  0  0  0  0
   -8.6376    1.3697    0.0000 C   0  0  0  0  0  0  0  0  0  0  0  0
   -7.6677    0.2255    0.0000 C   0  0  0  0  0  0  0  0  0  0  0  0
   -6.1918    0.4933    0.0000 C   0  0  0  0  0  0  0  0  0  0  0  0
   -5.6858    1.9054    0.0000 C   0  0  0  0  0  0  0  0  0  0  0  0
   -4.6580    4.6185    0.0000 C   0  0  0  0  0  0  0  0  0  0  0  0
   -3.6880    5.7176    0.0000 C   0  0  0  0  0  0  0  0  0  0  0  0
   -4.9398    6.5440    0.0000 C   0  0  0  0  0  0  0  0  0  0  0  0
   -6.0084    5.4913    0.0000 O   0  0  0  0  0  0  0  0  0  0  0  0
  1  2  1  0
  2  3  2  0
  3  4  1  0
  4  5  2  0
  5  6  1  0
  6  7  2  0
  7  8  1  0
  8  9  2  0
  9 10  1  0
 10 11  2  0
 11 12  1  0
 12 13  1  0
 13 14  2  0
 14 15  1  0
 15 16  2  0
 16 17  1  0
 17 18  1  0
 18 19  2  0
 19 20  1  0
 20 21  2  0
 21 22  1  0
 22 23  1  0
 23 24  2  0
 23 25  1  0
 21 26  1  0
 26 27  2  0
 27 28  1  0
 28 29  2  0
 29 30  1  0
 30 31  1  0
 31 32  1  0
 32 33  1  0
 33 34  1  0
 34 35  2  0
 35 36  1  0
 36 37  2  0
 37 38  1  0
 38 39  2  0
 39 40  1  0
 40 41  2  0
 41 42  1  0
 42 43  2  0
 43 44  1  0
 44 45  2  0
 45 46  1  0
 46 47  2  0
 47 48  1  0
 48 49  1  0
 49 50  2  0
 50 51  1  0
 51 52  2  0
 52 53  1  0
 53 54  2  0
 54 55  1  0
 55 56  2  0
 56 57  1  0
 57 58  2  0
 52 59  1  0
 59 60  2  0
 60 61  1  0
 61 62  2  0
 25  2  1  0
 30 26  1  0
 37 31  1  0
 43 38  1  0
 48 44  1  0
 61 49  1  0
 11  5  1  0
 17 12  1  0
 60 18  1  0
 58 53  1  0
M  END
>  <Title>  (498) 
idAATDgen8

$$$$

     RDKit          2D

 34 36  0  0  0  0  0  0  0  0999 V2000
   -5.5294    5.8586    0.0000 C   0  0  0  0  0  0  0  0  0  0  0  0
   -4.0506    6.1098    0.0000 C   0  0  0  0  0  0  0  0  0  0  0  0
   -4.1067    7.6088    0.0000 C   0  0  0  0  0  0  0  0  0  0  0  0
   -3.7729    9.0712    0.0000 C   0  0  0  0  0  0  0  0  0  0  0  0
   -3.0720   10.3974    0.0000 C   0  0  0  0  0  0  0  0  0  0  0  0
   -2.0517   11.4969    0.0000 C   0  0  0  0  0  0  0  0  0  0  0  0
   -0.7816   12.2950    0.0000 C   0  0  0  0  0  0  0  0  0  0  0  0
    0.6517   12.7371    0.0000 C   0  0  0  0  0  0  0  0  0  0  0  0
    2.1507   12.7932    0.0000 C   0  0  0  0  0  0  0  0  0  0  0  0
    3.6131   12.4594    0.0000 C   0  0  0  0  0  0  0  0  0  0  0  0
    4.9392   11.7585    0.0000 C   0  0  0  0  0  0  0  0  0  0  0  0
    6.0388   10.7383    0.0000 C   0  0  0  0  0  0  0  0  0  0  0  0
    6.8369    9.4682    0.0000 C   0  0  0  0  0  0  0  0  0  0  0  0
    7.2790    8.0348    0.0000 C   0  0  0  0  0  0  0  0  0  0  0  0
    7.3351    6.5359    0.0000 C   0  0  0  0  0  0  0  0  0  0  0  0
    7.0013    5.0735    0.0000 C   0  0  0  0  0  0  0  0  0  0  0  0
    6.3004    3.7473    0.0000 C   0  0  0  0  0  0  0  0  0  0  0  0
    5.2801    2.6477    0.0000 C   0  0  0  0  0  0  0  0  0  0  0  0
    4.0101    1.8497    0.0000 C   0  0  0  0  0  0  0  0  0  0  0  0
    2.5767    1.4075    0.0000 C   0  0  0  0  0  0  0  0  0  0  0  0
    1.0777    1.3515    0.0000 C   0  0  0  0  0  0  0  0  0  0  0  0
    1.7286    0.0000    0.0000 C   0  0  0  0  0  0  0  0  0  0  0  0
    1.0777   -1.3515    0.0000 C   0  0  0  0  0  0  0  0  0  0  0  0
   -0.3846   -1.6852    0.0000 C   0  0  0  0  0  0  0  0  0  0  0  0
   -1.5574   -0.7500    0.0000 C   0  0  0  0  0  0  0  0  0  0  0  0
   -1.5574    0.7500    0.0000 C   0  0  0  0  0  0  0  0  0  0  0  0
   -0.3846    1.6852    0.0000 C   0  0  0  0  0  0  0  0  0  0  0  0
   -1.7108    2.3861    0.0000 C   0  0  0  0  0  0  0  0  0  0  0  0
   -2.5577    1.3999    0.0000 C   0  0  0  0  0  0  0  0  0  0  0  0
   -3.3222    1.1641    0.0000 C   0  0  0  0  0  0  0  0  0  0  0  0
   -3.9086    1.7082    0.0000 C   0  0  0  0  0  0  0  0  0  0  0  0
   -3.7306    2.4881    0.0000 C   0  0  0  0  0  0  0  0  0  0  0  0
   -2.8104    3.4064    0.0000 C   0  0  0  0  0  0  0  0  0  0  0  0
   -3.6084    4.6765    0.0000 O   0  0  0  0  0  0  0  0  0  0  0  0
  1  2  1  0
  2  3  2  0
  3  4  1  0
  4  5  2  0
  5  6  1  0
  6  7  2  0
  7  8  1  0
  8  9  2  0
  9 10  1  0
 10 11  2  0
 11 12  1  0
 12 13  2  0
 13 14  1  0
 14 15  2  0
 15 16  1  0
 16 17  2  0
 17 18  1  0
 18 19  2  0
 19 20  1  0
 20 21  2  0
 21 22  1  0
 22 23  1  0
 23 24  1  0
 24 25  2  0
 25 26  1  0
 26 27  2  0
 27 28  1  0
 28 29  2  0
 29 30  1  0
 30 31  2  0
 31 32  1  0
 32 33  2  0
 33 34  1  0
 34  2  1  0
 27 21  1  0
 33 28  1  0
M  END
>  <Title>  (499) 
idAATEgen8

$$$$

     RDKit          2D

 36 37  0  0  0  0  0  0  0  0999 V2000
    0.7560    9.1474    0.0000 C   0  0  0  0  0  0  0  0  0  0  0  0
    0.9128    7.6556    0.0000 O   0  0  0  0  0  0  0  0  0  0  0  0
    2.2831    7.0455    0.0000 C   0  0  0  0  0  0  0  0  0  0  0  0
    3.0906    8.3096    0.0000 C   0  0  0  0  0  0  0  0  0  0  0  0
    4.2349    9.2795    0.0000 C   0  0  0  0  0  0  0  0  0  0  0  0
    5.6142    9.8690    0.0000 C   0  0  0  0  0  0  0  0  0  0  0  0
    7.1060   10.0258    0.0000 C   0  0  0  0  0  0  0  0  0  0  0  0
    8.5777    9.7359    0.0000 C   0  0  0  0  0  0  0  0  0  0  0  0
    9.8986    9.0251    0.0000 C   0  0  0  0  0  0  0  0  0  0  0  0
   10.9513    7.9566    0.0000 C   0  0  0  0  0  0  0  0  0  0  0  0
   11.6422    6.6252    0.0000 C   0  0  0  0  0  0  0  0  0  0  0  0
   11.9101    5.1493    0.0000 C   0  0  0  0  0  0  0  0  0  0  0  0
   11.7310    3.6600    0.0000 C   0  0  0  0  0  0  0  0  0  0  0  0
   11.1209    2.2897    0.0000 C   0  0  0  0  0  0  0  0  0  0  0  0
   10.1340    1.1601    0.0000 C   0  0  0  0  0  0  0  0  0  0  0  0
    8.8580    0.3716    0.0000 C   0  0  0  0  0  0  0  0  0  0  0  0
    7.4062   -0.0058    0.0000 C   0  0  0  0  0  0  0  0  0  0  0  0
    5.9077    0.0615    0.0000 C   0  0  0  0  0  0  0  0  0  0  0  0
    4.4956    0.5675    0.0000 C   0  0  0  0  0  0  0  0  0  0  0  0
    3.2954    1.4672    0.0000 C   0  0  0  0  0  0  0  0  0  0  0  0
    3.6073    0.0000    0.0000 C   0  0  0  0  0  0  0  0  0  0  0  0
    3.2954   -1.4672    0.0000 C   0  0  0  0  0  0  0  0  0  0  0  0
    2.4138   -2.6807    0.0000 C   0  0  0  0  0  0  0  0  0  0  0  0
    1.1147   -3.4307    0.0000 C   0  0  0  0  0  0  0  0  0  0  0  0
   -0.3771   -3.5875    0.0000 C   0  0  0  0  0  0  0  0  0  0  0  0
   -1.8037   -3.1240    0.0000 C   0  0  0  0  0  0  0  0  0  0  0  0
   -2.9184   -2.1203    0.0000 C   0  0  0  0  0  0  0  0  0  0  0  0
   -3.5285   -0.7500    0.0000 C   0  0  0  0  0  0  0  0  0  0  0  0
   -3.5285    0.7500    0.0000 C   0  0  0  0  0  0  0  0  0  0  0  0
   -2.9184    2.1203    0.0000 C   0  0  0  0  0  0  0  0  0  0  0  0
   -1.8037    3.1240    0.0000 C   0  0  0  0  0  0  0  0  0  0  0  0
   -0.3771    3.5875    0.0000 C   0  0  0  0  0  0  0  0  0  0  0  0
    1.1147    3.4307    0.0000 C   0  0  0  0  0  0  0  0  0  0  0  0
    2.4138    2.6807    0.0000 C   0  0  0  0  0  0  0  0  0  0  0  0
    1.9289    4.1002    0.0000 C   0  0  0  0  0  0  0  0  0  0  0  0
    1.8841    5.5996    0.0000 C   0  0  0  0  0  0  0  0  0  0  0  0
  1  2  1  0
  2  3  1  0
  3  4  2  0
  4  5  1  0
  5  6  2  0
  6  7  1  0
  7  8  2  0
  8  9  1  0
  9 10  2  0
 10 11  1  0
 11 12  2  0
 12 13  1  0
 13 14  2  0
 14 15  1  0
 15 16  2  0
 16 17  1  0
 17 18  2  0
 18 19  1  0
 19 20  2  0
 20 21  1  0
 21 22  2  0
 22 23  1  0
 23 24  2  0
 24 25  1  0
 25 26  2  0
 26 27  1  0
 27 28  2  0
 28 29  1  0
 29 30  2  0
 30 31  1  0
 31 32  2  0
 32 33  1  0
 33 34  2  0
 34 35  1  0
 35 36  2  0
 36  3  1  0
 34 20  1  0
M  END
>  <Title>  (500) 
idAATFgen8

$$$$

     RDKit          2D

 32 36  0  0  0  0  0  0  0  0999 V2000
   -1.5000   -5.1962    0.0000 C   0  0  0  0  0  0  0  0  0  0  0  0
   -0.7500   -3.8971    0.0000 C   0  0  0  0  0  0  0  0  0  0  0  0
    0.7500   -3.8971    0.0000 N   0  0  0  0  0  0  0  0  0  0  0  0
    1.5000   -2.5981    0.0000 C   0  0  0  0  0  0  0  0  0  0  0  0
    3.0000   -2.5981    0.0000 C   0  0  0  0  0  0  0  0  0  0  0  0
    3.8817   -1.3846    0.0000 N   0  0  0  0  0  0  0  0  0  0  0  0
    5.3083   -1.8481    0.0000 N   0  0  0  0  0  0  0  0  0  0  0  0
    5.3083   -3.3481    0.0000 N   0  0  0  0  0  0  0  0  0  0  0  0
    3.8817   -3.8116    0.0000 N   0  0  0  0  0  0  0  0  0  0  0  0
    3.4182   -5.2382    0.0000 C   0  0  0  0  0  0  0  0  0  0  0  0
    1.9916   -5.7017    0.0000 N   0  0  0  0  0  0  0  0  0  0  0  0
    1.9916   -7.2017    0.0000 N   0  0  0  0  0  0  0  0  0  0  0  0
    3.4182   -7.6652    0.0000 N   0  0  0  0  0  0  0  0  0  0  0  0
    4.2998   -6.4517    0.0000 N   0  0  0  0  0  0  0  0  0  0  0  0
    5.7998   -6.4517    0.0000 C   0  0  0  0  0  0  0  0  0  0  0  0
    6.5498   -5.1527    0.0000 C   0  0  0  0  0  0  0  0  0  0  0  0
    8.0498   -5.1527    0.0000 C   0  0  0  0  0  0  0  0  0  0  0  0
    8.7998   -6.4517    0.0000 C   0  0  0  0  0  0  0  0  0  0  0  0
   10.2998   -6.4517    0.0000 C   0  0  0  0  0  0  0  0  0  0  0  0
   11.0498   -5.1527    0.0000 O   0  0  0  0  0  0  0  0  0  0  0  0
   11.0498   -7.7508    0.0000 N   0  0  0  0  0  0  0  0  0  0  0  0
   12.5498   -7.7508    0.0000 O   0  0  0  0  0  0  0  0  0  0  0  0
    8.0498   -7.7508    0.0000 C   0  0  0  0  0  0  0  0  0  0  0  0
    8.7998   -9.0498    0.0000 O   0  0  0  0  0  0  0  0  0  0  0  0
    6.5498   -7.7508    0.0000 N   0  0  0  0  0  0  0  0  0  0  0  0
    0.7500   -1.2990    0.0000 N   0  0  0  0  0  0  0  0  0  0  0  0
    1.5000    0.0000    0.0000 C   0  0  0  0  0  0  0  0  0  0  0  0
    0.7500    1.2990    0.0000 C   0  0  0  0  0  0  0  0  0  0  0  0
   -0.7500    1.2990    0.0000 C   0  0  0  0  0  0  0  0  0  0  0  0
   -1.5000    0.0000    0.0000 C   0  0  0  0  0  0  0  0  0  0  0  0
   -0.7500   -1.2990    0.0000 C   0  0  0  0  0  0  0  0  0  0  0  0
   -1.5000   -2.5981    0.0000 C   0  0  0  0  0  0  0  0  0  0  0  0
  1  2  1  0
  2  3  2  0
  3  4  1  0
  4  5  1  0
  5  6  2  0
  6  7  1  0
  7  8  2  0
  8  9  1  0
  9 10  1  0
 10 11  1  0
 11 12  1  0
 12 13  2  0
 13 14  1  0
 14 15  1  0
 15 16  2  0
 16 17  1  0
 17 18  2  0
 18 19  1  0
 19 20  2  0
 19 21  1  0
 21 22  1  0
 18 23  1  0
 23 24  2  0
 23 25  1  0
  4 26  1  0
 26 27  1  0
 27 28  1  0
 28 29  1  0
 29 30  1  0
 30 31  1  0
 31 32  1  0
 32  2  1  0
  9  5  1  0
 14 10  1  0
 25 15  1  0
 31 26  1  0
M  END
>  <Title>  (501) 
idAATGgen8

$$$$

     RDKit          2D

 32 35  0  0  0  0  0  0  0  0999 V2000
   -0.5773   -9.4764    0.0000 C   0  0  0  0  0  0  0  0  0  0  0  0
    0.8899   -9.1645    0.0000 C   0  0  0  0  0  0  0  0  0  0  0  0
    2.0046  -10.1682    0.0000 N   0  0  0  0  0  0  0  0  0  0  0  0
    3.3037   -9.4182    0.0000 N   0  0  0  0  0  0  0  0  0  0  0  0
    2.9918   -7.9510    0.0000 N   0  0  0  0  0  0  0  0  0  0  0  0
    1.5000   -7.7942    0.0000 N   0  0  0  0  0  0  0  0  0  0  0  0
    0.7500   -6.4952    0.0000 C   0  0  0  0  0  0  0  0  0  0  0  0
    1.5000   -5.1962    0.0000 C   0  0  0  0  0  0  0  0  0  0  0  0
    0.7500   -3.8971    0.0000 C   0  0  0  0  0  0  0  0  0  0  0  0
    1.5000   -2.5981    0.0000 C   0  0  0  0  0  0  0  0  0  0  0  0
    0.7500   -1.2990    0.0000 C   0  0  0  0  0  0  0  0  0  0  0  0
    1.5000    0.0000    0.0000 C   0  0  0  0  0  0  0  0  0  0  0  0
    0.7500    1.2990    0.0000 C   0  0  0  0  0  0  0  0  0  0  0  0
   -0.7500    1.2990    0.0000 C   0  0  0  0  0  0  0  0  0  0  0  0
   -1.5000    2.5981    0.0000 C   0  0  0  0  0  0  0  0  0  0  0  0
   -2.9918    2.7549    0.0000 N   0  0  0  0  0  0  0  0  0  0  0  0
   -3.3037    4.2221    0.0000 N   0  0  0  0  0  0  0  0  0  0  0  0
   -2.0046    4.9721    0.0000 N   0  0  0  0  0  0  0  0  0  0  0  0
   -0.8899    3.9684    0.0000 N   0  0  0  0  0  0  0  0  0  0  0  0
    0.5773    4.2803    0.0000 C   0  0  0  0  0  0  0  0  0  0  0  0
    1.5810    3.1655    0.0000 C   0  0  0  0  0  0  0  0  0  0  0  0
    3.0482    3.4774    0.0000 C   0  0  0  0  0  0  0  0  0  0  0  0
    3.5118    4.9040    0.0000 C   0  0  0  0  0  0  0  0  0  0  0  0
    4.9790    5.2159    0.0000 C   0  0  0  0  0  0  0  0  0  0  0  0
    5.4425    6.6424    0.0000 O   0  0  0  0  0  0  0  0  0  0  0  0
    5.9827    4.1011    0.0000 N   0  0  0  0  0  0  0  0  0  0  0  0
    7.4499    4.4130    0.0000 O   0  0  0  0  0  0  0  0  0  0  0  0
    2.5081    6.0187    0.0000 C   0  0  0  0  0  0  0  0  0  0  0  0
    1.0409    5.7068    0.0000 C   0  0  0  0  0  0  0  0  0  0  0  0
   -1.5000    0.0000    0.0000 C   0  0  0  0  0  0  0  0  0  0  0  0
   -3.0000    0.0000    0.0000 O   0  0  0  0  0  0  0  0  0  0  0  0
   -0.7500   -1.2990    0.0000 N   0  0  0  0  0  0  0  0  0  0  0  0
  1  2  1  0
  2  3  2  0
  3  4  1  0
  4  5  2  0
  5  6  1  0
  6  7  1  0
  7  8  1  0
  8  9  1  0
  9 10  1  0
 10 11  1  0
 11 12  2  0
 12 13  1  0
 13 14  2  0
 14 15  1  0
 15 16  2  0
 16 17  1  0
 17 18  2  0
 18 19  1  0
 19 20  1  0
 20 21  2  0
 21 22  1  0
 22 23  2  0
 23 24  1  0
 24 25  2  0
 24 26  1  0
 26 27  1  0
 23 28  1  0
 28 29  1  0
 14 30  1  0
 30 31  2  0
 30 32  1  0
  6  2  1  0
 32 11  1  0
 19 15  1  0
 29 20  1  0
M  END
>  <Title>  (502) 
idAATHgen8

$$$$

     RDKit          2D

 15 15  0  0  0  0  0  0  0  0999 V2000
    4.8705    0.0000    0.0000 O   0  0  0  0  0  0  0  0  0  0  0  0
    3.3705    0.0000    0.0000 C   0  0  0  0  0  0  0  0  0  0  0  0
    3.0367   -1.4624    0.0000 C   0  0  0  0  0  0  0  0  0  0  0  0
    2.1015   -2.6351    0.0000 C   0  0  0  0  0  0  0  0  0  0  0  0
    0.7500   -3.2860    0.0000 C   0  0  0  0  0  0  0  0  0  0  0  0
   -0.7500   -3.2860    0.0000 C   0  0  0  0  0  0  0  0  0  0  0  0
   -2.1015   -2.6351    0.0000 C   0  0  0  0  0  0  0  0  0  0  0  0
   -3.0367   -1.4624    0.0000 C   0  0  0  0  0  0  0  0  0  0  0  0
   -3.3705    0.0000    0.0000 C   0  0  0  0  0  0  0  0  0  0  0  0
   -3.0367    1.4624    0.0000 C   0  0  0  0  0  0  0  0  0  0  0  0
   -2.1015    2.6351    0.0000 C   0  0  0  0  0  0  0  0  0  0  0  0
   -0.7500    3.2860    0.0000 N   0  0  0  0  0  0  0  0  0  0  0  0
    0.7500    3.2860    0.0000 C   0  0  0  0  0  0  0  0  0  0  0  0
    2.1015    2.6351    0.0000 C   0  0  0  0  0  0  0  0  0  0  0  0
    3.0367    1.4624    0.0000 C   0  0  0  0  0  0  0  0  0  0  0  0
  1  2  1  0
  2  3  2  0
  3  4  1  0
  4  5  2  0
  5  6  1  0
  6  7  2  0
  7  8  1  0
  8  9  2  0
  9 10  1  0
 10 11  2  0
 11 12  1  0
 12 13  2  0
 13 14  1  0
 14 15  2  0
 15  2  1  0
M  END
>  <Title>  (503) 
idAATIgen8

$$$$

     RDKit          2D

 21 23  0  0  0  0  0  0  0  0999 V2000
    3.0000    0.0000    0.0000 C   0  0  0  0  0  0  0  0  0  0  0  0
    1.5000    0.0000    0.0000 C   0  0  0  0  0  0  0  0  0  0  0  0
    0.7500    1.2990    0.0000 C   0  0  0  0  0  0  0  0  0  0  0  0
   -0.7500    1.2990    0.0000 C   0  0  0  0  0  0  0  0  0  0  0  0
   -1.5000    0.0000    0.0000 C   0  0  0  0  0  0  0  0  0  0  0  0
   -3.0000    0.0000    0.0000 C   0  0  0  0  0  0  0  0  0  0  0  0
   -3.8817   -1.2135    0.0000 N   0  0  0  0  0  0  0  0  0  0  0  0
   -5.3083   -0.7500    0.0000 N   0  0  0  0  0  0  0  0  0  0  0  0
   -5.3083    0.7500    0.0000 N   0  0  0  0  0  0  0  0  0  0  0  0
   -3.8817    1.2135    0.0000 N   0  0  0  0  0  0  0  0  0  0  0  0
   -3.4182    2.6401    0.0000 C   0  0  0  0  0  0  0  0  0  0  0  0
   -1.9509    2.9520    0.0000 C   0  0  0  0  0  0  0  0  0  0  0  0
   -1.4874    4.3786    0.0000 C   0  0  0  0  0  0  0  0  0  0  0  0
   -2.4911    5.4933    0.0000 C   0  0  0  0  0  0  0  0  0  0  0  0
   -2.0276    6.9199    0.0000 C   0  0  0  0  0  0  0  0  0  0  0  0
   -3.9583    5.1814    0.0000 C   0  0  0  0  0  0  0  0  0  0  0  0
   -4.9620    6.2961    0.0000 O   0  0  0  0  0  0  0  0  0  0  0  0
   -4.4218    3.7548    0.0000 N   0  0  0  0  0  0  0  0  0  0  0  0
   -0.7500   -1.2990    0.0000 C   0  0  0  0  0  0  0  0  0  0  0  0
   -1.5000   -2.5981    0.0000 O   0  0  0  0  0  0  0  0  0  0  0  0
    0.7500   -1.2990    0.0000 N   0  0  0  0  0  0  0  0  0  0  0  0
  1  2  1  0
  2  3  2  0
  3  4  1  0
  4  5  2  0
  5  6  1  0
  6  7  2  0
  7  8  1  0
  8  9  2  0
  9 10  1  0
 10 11  1  0
 11 12  2  0
 12 13  1  0
 13 14  2  0
 14 15  1  0
 14 16  1  0
 16 17  2  0
 16 18  1  0
  5 19  1  0
 19 20  2  0
 19 21  1  0
 21  2  1  0
 10  6  1  0
 18 11  1  0
M  END
>  <Title>  (504) 
idAATJgen8

$$$$

     RDKit          2D

 37 42  0  0  0  0  0  0  0  0999 V2000
    3.2286   -0.0000    0.0000 C   0  0  0  0  0  0  0  0  0  0  0  0
    1.7286    0.0000    0.0000 C   0  0  0  0  0  0  0  0  0  0  0  0
    1.0777    1.3515    0.0000 C   0  0  0  0  0  0  0  0  0  0  0  0
   -0.3846    1.6852    0.0000 C   0  0  0  0  0  0  0  0  0  0  0  0
   -1.5574    0.7500    0.0000 C   0  0  0  0  0  0  0  0  0  0  0  0
   -2.9088    1.4008    0.0000 C   0  0  0  0  0  0  0  0  0  0  0  0
   -4.2297    0.6900    0.0000 N   0  0  0  0  0  0  0  0  0  0  0  0
   -5.3139    1.7266    0.0000 N   0  0  0  0  0  0  0  0  0  0  0  0
   -4.6631    3.0781    0.0000 N   0  0  0  0  0  0  0  0  0  0  0  0
   -3.1767    2.8767    0.0000 N   0  0  0  0  0  0  0  0  0  0  0  0
   -2.1401    3.9609    0.0000 C   0  0  0  0  0  0  0  0  0  0  0  0
   -2.4079    5.4368    0.0000 C   0  0  0  0  0  0  0  0  0  0  0  0
   -1.0870    6.1476    0.0000 C   0  0  0  0  0  0  0  0  0  0  0  0
   -0.0028    5.1110    0.0000 C   0  0  0  0  0  0  0  0  0  0  0  0
    1.4731    5.3789    0.0000 C   0  0  0  0  0  0  0  0  0  0  0  0
    2.5573    4.3423    0.0000 N   0  0  0  0  0  0  0  0  0  0  0  0
    3.8781    5.0531    0.0000 N   0  0  0  0  0  0  0  0  0  0  0  0
    3.6103    6.5290    0.0000 N   0  0  0  0  0  0  0  0  0  0  0  0
    2.1239    6.7303    0.0000 N   0  0  0  0  0  0  0  0  0  0  0  0
    1.4131    8.0512    0.0000 C   0  0  0  0  0  0  0  0  0  0  0  0
   -0.0733    8.2525    0.0000 C   0  0  0  0  0  0  0  0  0  0  0  0
   -0.3412    9.7284    0.0000 C   0  0  0  0  0  0  0  0  0  0  0  0
    0.9797   10.4392    0.0000 C   0  0  0  0  0  0  0  0  0  0  0  0
    1.1811   11.9257    0.0000 C   0  0  0  0  0  0  0  0  0  0  0  0
    2.5690   12.4945    0.0000 C   0  0  0  0  0  0  0  0  0  0  0  0
    2.7704   13.9809    0.0000 N   0  0  0  0  0  0  0  0  0  0  0  0
    1.5838   14.8985    0.0000 N   0  0  0  0  0  0  0  0  0  0  0  0
    0.1958   14.3297    0.0000 N   0  0  0  0  0  0  0  0  0  0  0  0
   -0.0055   12.8433    0.0000 C   0  0  0  0  0  0  0  0  0  0  0  0
    2.0639    9.4027    0.0000 C   0  0  0  0  0  0  0  0  0  0  0  0
    3.5398    9.6705    0.0000 O   0  0  0  0  0  0  0  0  0  0  0  0
   -0.6537    3.7596    0.0000 C   0  0  0  0  0  0  0  0  0  0  0  0
    0.0571    2.4387    0.0000 O   0  0  0  0  0  0  0  0  0  0  0  0
   -1.5574   -0.7500    0.0000 N   0  0  0  0  0  0  0  0  0  0  0  0
   -0.3846   -1.6852    0.0000 C   0  0  0  0  0  0  0  0  0  0  0  0
   -0.7184   -3.1476    0.0000 O   0  0  0  0  0  0  0  0  0  0  0  0
    1.0777   -1.3515    0.0000 N   0  0  0  0  0  0  0  0  0  0  0  0
  1  2  1  0
  2  3  2  0
  3  4  1  0
  4  5  2  0
  5  6  1  0
  6  7  2  0
  7  8  1  0
  8  9  2  0
  9 10  1  0
 10 11  1  0
 11 12  2  0
 12 13  1  0
 13 14  2  0
 14 15  1  0
 15 16  2  0
 16 17  1  0
 17 18  2  0
 18 19  1  0
 19 20  1  0
 20 21  2  0
 21 22  1  0
 22 23  2  0
 23 24  1  0
 24 25  2  0
 25 26  1  0
 26 27  2  0
 27 28  1  0
 28 29  2  0
 23 30  1  0
 30 31  2  0
 14 32  1  0
 32 33  2  0
  5 34  1  0
 34 35  1  0
 35 36  2  0
 35 37  1  0
 37  2  1  0
 10  6  1  0
 32 11  1  0
 19 15  1  0
 30 20  1  0
 29 24  1  0
M  END
>  <Title>  (505) 
idAATKgen8

$$$$

     RDKit          2D

 18 18  0  0  0  0  0  0  0  0999 V2000
    5.3444    0.0000    0.0000 C   0  0  0  0  0  0  0  0  0  0  0  0
    3.8444    0.0000    0.0000 C   0  0  0  0  0  0  0  0  0  0  0  0
    3.5517   -1.4712    0.0000 C   0  0  0  0  0  0  0  0  0  0  0  0
    2.7184   -2.7184    0.0000 C   0  0  0  0  0  0  0  0  0  0  0  0
    1.4712   -3.5517    0.0000 C   0  0  0  0  0  0  0  0  0  0  0  0
   -0.0000   -3.8444    0.0000 C   0  0  0  0  0  0  0  0  0  0  0  0
   -1.4712   -3.5517    0.0000 C   0  0  0  0  0  0  0  0  0  0  0  0
   -2.7184   -2.7184    0.0000 C   0  0  0  0  0  0  0  0  0  0  0  0
   -3.5517   -1.4712    0.0000 C   0  0  0  0  0  0  0  0  0  0  0  0
   -3.8444    0.0000    0.0000 C   0  0  0  0  0  0  0  0  0  0  0  0
   -3.5517    1.4712    0.0000 C   0  0  0  0  0  0  0  0  0  0  0  0
   -2.7184    2.7184    0.0000 C   0  0  0  0  0  0  0  0  0  0  0  0
   -1.4712    3.5517    0.0000 C   0  0  0  0  0  0  0  0  0  0  0  0
    0.0000    3.8444    0.0000 C   0  0  0  0  0  0  0  0  0  0  0  0
    1.4712    3.5517    0.0000 C   0  0  0  0  0  0  0  0  0  0  0  0
    2.7184    2.7184    0.0000 C   0  0  0  0  0  0  0  0  0  0  0  0
    3.5517    1.4712    0.0000 C   0  0  0  0  0  0  0  0  0  0  0  0
    4.9376    2.0452    0.0000 O   0  0  0  0  0  0  0  0  0  0  0  0
  1  2  1  0
  2  3  2  0
  3  4  1  0
  4  5  2  0
  5  6  1  0
  6  7  2  0
  7  8  1  0
  8  9  2  0
  9 10  1  0
 10 11  2  0
 11 12  1  0
 12 13  2  0
 13 14  1  0
 14 15  2  0
 15 16  1  0
 16 17  2  0
 17 18  1  0
 17  2  1  0
M  END
>  <Title>  (506) 
idAATLgen8

$$$$

     RDKit          2D

 55 63  0  0  0  0  0  0  0  0999 V2000
    9.2656   -7.7472    0.0000 C   0  0  0  0  0  0  0  0  0  0  0  0
    7.8167   -8.1354    0.0000 C   0  0  0  0  0  0  0  0  0  0  0  0
    7.4285   -9.5843    0.0000 C   0  0  0  0  0  0  0  0  0  0  0  0
    5.9796   -9.9725    0.0000 C   0  0  0  0  0  0  0  0  0  0  0  0
    4.9189   -8.9119    0.0000 C   0  0  0  0  0  0  0  0  0  0  0  0
    3.4700   -9.3001    0.0000 C   0  0  0  0  0  0  0  0  0  0  0  0
    2.9325  -10.7005    0.0000 C   0  0  0  0  0  0  0  0  0  0  0  0
    1.4346  -10.6220    0.0000 N   0  0  0  0  0  0  0  0  0  0  0  0
    1.0463   -9.1731    0.0000 N   0  0  0  0  0  0  0  0  0  0  0  0
    2.3043   -8.3561    0.0000 N   0  0  0  0  0  0  0  0  0  0  0  0
    2.3828   -6.8582    0.0000 C   0  0  0  0  0  0  0  0  0  0  0  0
    3.7193   -6.1772    0.0000 C   0  0  0  0  0  0  0  0  0  0  0  0
    3.7978   -4.6792    0.0000 C   0  0  0  0  0  0  0  0  0  0  0  0
    2.5398   -3.8623    0.0000 C   0  0  0  0  0  0  0  0  0  0  0  0
    2.6183   -2.3643    0.0000 C   0  0  0  0  0  0  0  0  0  0  0  0
    1.3603   -1.5474    0.0000 O   0  0  0  0  0  0  0  0  0  0  0  0
    3.9549   -1.6834    0.0000 N   0  0  0  0  0  0  0  0  0  0  0  0
    4.0334   -0.1854    0.0000 C   0  0  0  0  0  0  0  0  0  0  0  0
    2.8676    0.7586    0.0000 N   0  0  0  0  0  0  0  0  0  0  0  0
    3.4052    2.1589    0.0000 N   0  0  0  0  0  0  0  0  0  0  0  0
    4.9031    2.0804    0.0000 N   0  0  0  0  0  0  0  0  0  0  0  0
    5.2914    0.6315    0.0000 N   0  0  0  0  0  0  0  0  0  0  0  0
    6.6917    0.0940    0.0000 C   0  0  0  0  0  0  0  0  0  0  0  0
    6.9264   -1.3875    0.0000 C   0  0  0  0  0  0  0  0  0  0  0  0
    8.3268   -1.9251    0.0000 C   0  0  0  0  0  0  0  0  0  0  0  0
    9.4925   -0.9811    0.0000 C   0  0  0  0  0  0  0  0  0  0  0  0
    9.2578    0.5004    0.0000 C   0  0  0  0  0  0  0  0  0  0  0  0
    7.8575    1.0380    0.0000 C   0  0  0  0  0  0  0  0  0  0  0  0
    1.2033   -4.5433    0.0000 C   0  0  0  0  0  0  0  0  0  0  0  0
    1.1248   -6.0412    0.0000 C   0  0  0  0  0  0  0  0  0  0  0  0
   -0.2117   -6.7222    0.0000 C   0  0  0  0  0  0  0  0  0  0  0  0
   -0.4463   -8.2037    0.0000 N   0  0  0  0  0  0  0  0  0  0  0  0
   -1.9279   -8.4384    0.0000 N   0  0  0  0  0  0  0  0  0  0  0  0
   -2.6089   -7.1019    0.0000 N   0  0  0  0  0  0  0  0  0  0  0  0
   -1.5482   -6.0412    0.0000 N   0  0  0  0  0  0  0  0  0  0  0  0
   -1.7828   -4.5597    0.0000 C   0  0  0  0  0  0  0  0  0  0  0  0
   -3.2644   -4.3250    0.0000 C   0  0  0  0  0  0  0  0  0  0  0  0
   -4.3250   -3.2644    0.0000 C   0  0  0  0  0  0  0  0  0  0  0  0
   -4.5597   -1.7828    0.0000 C   0  0  0  0  0  0  0  0  0  0  0  0
   -6.0412   -1.5482    0.0000 C   0  0  0  0  0  0  0  0  0  0  0  0
   -6.5788   -0.1478    0.0000 C   0  0  0  0  0  0  0  0  0  0  0  0
   -8.0603    0.0868    0.0000 C   0  0  0  0  0  0  0  0  0  0  0  0
   -9.0043   -1.0789    0.0000 C   0  0  0  0  0  0  0  0  0  0  0  0
   -8.4667   -2.4793    0.0000 C   0  0  0  0  0  0  0  0  0  0  0  0
   -6.9852   -2.7139    0.0000 C   0  0  0  0  0  0  0  0  0  0  0  0
   -3.8787   -0.4463    0.0000 C   0  0  0  0  0  0  0  0  0  0  0  0
   -2.5422    0.2347    0.0000 C   0  0  0  0  0  0  0  0  0  0  0  0
   -1.0607    0.0000    0.0000 C   0  0  0  0  0  0  0  0  0  0  0  0
   -0.0000   -1.0607    0.0000 C   0  0  0  0  0  0  0  0  0  0  0  0
    0.2347   -2.5422    0.0000 C   0  0  0  0  0  0  0  0  0  0  0  0
   -0.4463   -3.8787    0.0000 C   0  0  0  0  0  0  0  0  0  0  0  0
    1.0607    0.0000    0.0000 C   0  0  0  0  0  0  0  0  0  0  0  0
    0.0000    1.0607    0.0000 C   0  0  0  0  0  0  0  0  0  0  0  0
    5.3072   -7.4630    0.0000 C   0  0  0  0  0  0  0  0  0  0  0  0
    6.7561   -7.0748    0.0000 C   0  0  0  0  0  0  0  0  0  0  0  0
  1  2  1  0
  2  3  2  0
  3  4  1  0
  4  5  2  0
  5  6  1  0
  6  7  2  0
  7  8  1  0
  8  9  2  0
  9 10  1  0
 10 11  1  0
 11 12  2  0
 12 13  1  0
 13 14  2  0
 14 15  1  0
 15 16  2  0
 15 17  1  0
 17 18  1  0
 18 19  2  0
 19 20  1  0
 20 21  2  0
 21 22  1  0
 22 23  1  0
 23 24  2  0
 24 25  1  0
 25 26  2  0
 26 27  1  0
 27 28  2  0
 14 29  1  0
 29 30  2  0
 30 31  1  0
 31 32  2  0
 32 33  1  0
 33 34  2  0
 34 35  1  0
 35 36  1  0
 36 37  2  0
 37 38  1  0
 38 39  2  0
 39 40  1  0
 40 41  2  0
 41 42  1  0
 42 43  2  0
 43 44  1  0
 44 45  2  0
 39 46  1  0
 46 47  2  0
 47 48  1  0
 48 49  2  0
 49 50  1  0
 50 51  2  0
 49 52  1  0
 52 53  2  0
  5 54  1  0
 54 55  2  0
 55  2  1  0
 10  6  1  0
 30 11  1  0
 35 31  1  0
 51 36  1  0
 22 18  1  0
 28 23  1  0
 45 40  1  0
 53 48  1  0
M  END
>  <Title>  (507) 
idAATMgen8

$$$$

     RDKit          2D

 52 60  0  0  0  0  0  0  0  0999 V2000
   -4.8274   10.7735    0.0000 C   0  0  0  0  0  0  0  0  0  0  0  0
   -5.2909    9.3469    0.0000 C   0  0  0  0  0  0  0  0  0  0  0  0
   -4.2872    8.2322    0.0000 C   0  0  0  0  0  0  0  0  0  0  0  0
   -4.7508    6.8056    0.0000 C   0  0  0  0  0  0  0  0  0  0  0  0
   -6.2180    6.4937    0.0000 C   0  0  0  0  0  0  0  0  0  0  0  0
   -6.6815    5.0672    0.0000 C   0  0  0  0  0  0  0  0  0  0  0  0
   -8.1081    4.6036    0.0000 C   0  0  0  0  0  0  0  0  0  0  0  0
   -8.1081    3.1036    0.0000 C   0  0  0  0  0  0  0  0  0  0  0  0
   -6.6815    2.6401    0.0000 C   0  0  0  0  0  0  0  0  0  0  0  0
   -5.7998    3.8536    0.0000 N   0  0  0  0  0  0  0  0  0  0  0  0
   -4.2998    3.8536    0.0000 C   0  0  0  0  0  0  0  0  0  0  0  0
   -3.4182    2.6401    0.0000 C   0  0  0  0  0  0  0  0  0  0  0  0
   -1.9916    3.1036    0.0000 C   0  0  0  0  0  0  0  0  0  0  0  0
   -1.9916    4.6036    0.0000 C   0  0  0  0  0  0  0  0  0  0  0  0
   -0.7780    5.4853    0.0000 C   0  0  0  0  0  0  0  0  0  0  0  0
   -0.7780    6.9853    0.0000 N   0  0  0  0  0  0  0  0  0  0  0  0
    0.6485    7.4488    0.0000 N   0  0  0  0  0  0  0  0  0  0  0  0
    1.5302    6.2353    0.0000 N   0  0  0  0  0  0  0  0  0  0  0  0
    0.6485    5.0218    0.0000 N   0  0  0  0  0  0  0  0  0  0  0  0
    1.1121    3.5952    0.0000 C   0  0  0  0  0  0  0  0  0  0  0  0
    0.1084    2.4805    0.0000 C   0  0  0  0  0  0  0  0  0  0  0  0
    0.5719    1.0539    0.0000 C   0  0  0  0  0  0  0  0  0  0  0  0
    2.0391    0.7420    0.0000 C   0  0  0  0  0  0  0  0  0  0  0  0
    3.0428    1.8568    0.0000 N   0  0  0  0  0  0  0  0  0  0  0  0
    2.5793    3.2833    0.0000 C   0  0  0  0  0  0  0  0  0  0  0  0
    3.5830    4.3981    0.0000 N   0  0  0  0  0  0  0  0  0  0  0  0
    3.5045    5.8960    0.0000 N   0  0  0  0  0  0  0  0  0  0  0  0
    5.0024    5.9745    0.0000 N   0  0  0  0  0  0  0  0  0  0  0  0
    5.0809    4.4766    0.0000 N   0  0  0  0  0  0  0  0  0  0  0  0
    6.1956    3.4729    0.0000 C   0  0  0  0  0  0  0  0  0  0  0  0
    5.8838    2.0056    0.0000 C   0  0  0  0  0  0  0  0  0  0  0  0
    6.9985    1.0019    0.0000 C   0  0  0  0  0  0  0  0  0  0  0  0
    8.4251    1.4655    0.0000 C   0  0  0  0  0  0  0  0  0  0  0  0
    9.5398    0.4618    0.0000 C   0  0  0  0  0  0  0  0  0  0  0  0
    9.2279   -1.0054    0.0000 C   0  0  0  0  0  0  0  0  0  0  0  0
   10.3426   -2.0091    0.0000 C   0  0  0  0  0  0  0  0  0  0  0  0
   11.7692   -1.5456    0.0000 C   0  0  0  0  0  0  0  0  0  0  0  0
   12.0811   -0.0784    0.0000 C   0  0  0  0  0  0  0  0  0  0  0  0
   10.9664    0.9253    0.0000 C   0  0  0  0  0  0  0  0  0  0  0  0
    8.7369    2.9327    0.0000 C   0  0  0  0  0  0  0  0  0  0  0  0
    7.6222    3.9364    0.0000 C   0  0  0  0  0  0  0  0  0  0  0  0
    7.9341    5.4036    0.0000 C   0  0  0  0  0  0  0  0  0  0  0  0
    9.3607    5.8671    0.0000 C   0  0  0  0  0  0  0  0  0  0  0  0
    9.6726    7.3344    0.0000 C   0  0  0  0  0  0  0  0  0  0  0  0
    8.5578    8.3381    0.0000 C   0  0  0  0  0  0  0  0  0  0  0  0
    7.1312    7.8745    0.0000 C   0  0  0  0  0  0  0  0  0  0  0  0
    6.8194    6.4073    0.0000 C   0  0  0  0  0  0  0  0  0  0  0  0
   -3.4182    5.0672    0.0000 C   0  0  0  0  0  0  0  0  0  0  0  0
   -3.8817    6.4937    0.0000 O   0  0  0  0  0  0  0  0  0  0  0  0
   -7.2217    7.6085    0.0000 N   0  0  0  0  0  0  0  0  0  0  0  0
   -6.7582    9.0350    0.0000 C   0  0  0  0  0  0  0  0  0  0  0  0
   -7.7618   10.1498    0.0000 O   0  0  0  0  0  0  0  0  0  0  0  0
  1  2  1  0
  2  3  2  0
  3  4  1  0
  4  5  2  0
  5  6  1  0
  6  7  2  0
  7  8  1  0
  8  9  2  0
  9 10  1  0
 10 11  1  0
 11 12  2  0
 12 13  1  0
 13 14  2  0
 14 15  1  0
 15 16  2  0
 16 17  1  0
 17 18  2  0
 18 19  1  0
 19 20  1  0
 20 21  2  0
 21 22  1  0
 22 23  2  0
 23 24  1  0
 24 25  2  0
 25 26  1  0
 26 27  1  0
 27 28  2  0
 28 29  1  0
 29 30  1  0
 30 31  2  0
 31 32  1  0
 32 33  2  0
 33 34  1  0
 34 35  2  0
 35 36  1  0
 36 37  2  0
 37 38  1  0
 38 39  2  0
 33 40  1  0
 40 41  2  0
 41 42  1  0
 42 43  2  0
 43 44  1  0
 44 45  2  0
 45 46  1  0
 46 47  2  0
 14 48  1  0
 48 49  2  0
  5 50  1  0
 50 51  1  0
 51 52  2  0
 51  2  1  0
 10  6  1  0
 48 11  1  0
 19 15  1  0
 25 20  1  0
 29 26  1  0
 41 30  1  0
 47 42  1  0
 39 34  1  0
M  END
>  <Title>  (508) 
idAATNgen8

$$$$

     RDKit          2D

 42 47  0  0  0  0  0  0  0  0999 V2000
   -5.8124    8.2322    0.0000 C   0  0  0  0  0  0  0  0  0  0  0  0
   -5.3489    6.8056    0.0000 C   0  0  0  0  0  0  0  0  0  0  0  0
   -6.3526    5.6909    0.0000 O   0  0  0  0  0  0  0  0  0  0  0  0
   -3.8817    6.4937    0.0000 O   0  0  0  0  0  0  0  0  0  0  0  0
   -3.4182    5.0672    0.0000 C   0  0  0  0  0  0  0  0  0  0  0  0
   -1.9916    4.6036    0.0000 C   0  0  0  0  0  0  0  0  0  0  0  0
   -1.9916    3.1036    0.0000 C   0  0  0  0  0  0  0  0  0  0  0  0
   -3.4182    2.6401    0.0000 C   0  0  0  0  0  0  0  0  0  0  0  0
   -3.8817    1.2135    0.0000 C   0  0  0  0  0  0  0  0  0  0  0  0
   -5.3083    0.7500    0.0000 N   0  0  0  0  0  0  0  0  0  0  0  0
   -5.3083   -0.7500    0.0000 N   0  0  0  0  0  0  0  0  0  0  0  0
   -3.8817   -1.2135    0.0000 N   0  0  0  0  0  0  0  0  0  0  0  0
   -3.0000    0.0000    0.0000 N   0  0  0  0  0  0  0  0  0  0  0  0
   -1.5000    0.0000    0.0000 C   0  0  0  0  0  0  0  0  0  0  0  0
   -0.7500    1.2990    0.0000 C   0  0  0  0  0  0  0  0  0  0  0  0
    0.7500    1.2990    0.0000 C   0  0  0  0  0  0  0  0  0  0  0  0
    1.5000   -0.0000    0.0000 C   0  0  0  0  0  0  0  0  0  0  0  0
    0.7500   -1.2990    0.0000 C   0  0  0  0  0  0  0  0  0  0  0  0
   -0.7500   -1.2990    0.0000 C   0  0  0  0  0  0  0  0  0  0  0  0
   -1.5000   -2.5981    0.0000 N   0  0  0  0  0  0  0  0  0  0  0  0
   -3.0000   -2.5981    0.0000 N   0  0  0  0  0  0  0  0  0  0  0  0
   -3.7500   -3.8971    0.0000 N   0  0  0  0  0  0  0  0  0  0  0  0
   -3.0000   -5.1962    0.0000 N   0  0  0  0  0  0  0  0  0  0  0  0
   -1.5000   -5.1962    0.0000 N   0  0  0  0  0  0  0  0  0  0  0  0
   -0.7500   -3.8971    0.0000 N   0  0  0  0  0  0  0  0  0  0  0  0
    0.7500   -3.8971    0.0000 C   0  0  0  0  0  0  0  0  0  0  0  0
    1.6317   -2.6836    0.0000 N   0  0  0  0  0  0  0  0  0  0  0  0
    3.0583   -3.1471    0.0000 N   0  0  0  0  0  0  0  0  0  0  0  0
    3.0583   -4.6471    0.0000 N   0  0  0  0  0  0  0  0  0  0  0  0
    1.6317   -5.1106    0.0000 N   0  0  0  0  0  0  0  0  0  0  0  0
    1.1682   -6.5372    0.0000 C   0  0  0  0  0  0  0  0  0  0  0  0
   -0.2991   -6.8491    0.0000 C   0  0  0  0  0  0  0  0  0  0  0  0
   -0.7626   -8.2757    0.0000 C   0  0  0  0  0  0  0  0  0  0  0  0
    0.2411   -9.3904    0.0000 C   0  0  0  0  0  0  0  0  0  0  0  0
   -0.2224  -10.8170    0.0000 C   0  0  0  0  0  0  0  0  0  0  0  0
    0.7813  -11.9317    0.0000 O   0  0  0  0  0  0  0  0  0  0  0  0
   -1.6896  -11.1288    0.0000 N   0  0  0  0  0  0  0  0  0  0  0  0
   -2.1532  -12.5554    0.0000 O   0  0  0  0  0  0  0  0  0  0  0  0
    1.7083   -9.0785    0.0000 N   0  0  0  0  0  0  0  0  0  0  0  0
    2.1718   -7.6519    0.0000 C   0  0  0  0  0  0  0  0  0  0  0  0
    3.6391   -7.3401    0.0000 O   0  0  0  0  0  0  0  0  0  0  0  0
   -4.2998    3.8536    0.0000 N   0  0  0  0  0  0  0  0  0  0  0  0
  1  2  1  0
  2  3  2  0
  2  4  1  0
  4  5  1  0
  5  6  2  0
  6  7  1  0
  7  8  2  0
  8  9  1  0
  9 10  2  0
 10 11  1  0
 11 12  2  0
 12 13  1  0
 13 14  1  0
 14 15  2  0
 15 16  1  0
 16 17  2  0
 17 18  1  0
 18 19  2  0
 19 20  1  0
 20 21  1  0
 21 22  2  0
 22 23  1  0
 23 24  2  0
 24 25  1  0
 25 26  1  0
 26 27  2  0
 27 28  1  0
 28 29  2  0
 29 30  1  0
 30 31  1  0
 31 32  2  0
 32 33  1  0
 33 34  2  0
 34 35  1  0
 35 36  2  0
 35 37  1  0
 37 38  1  0
 34 39  1  0
 39 40  1  0
 40 41  2  0
  8 42  1  0
 42  5  1  0
 13  9  1  0
 19 14  1  0
 25 20  1  0
 30 26  1  0
 40 31  1  0
M  END
>  <Title>  (509) 
idAATOgen8

$$$$

     RDKit          2D

 27 27  0  0  0  0  0  0  0  0999 V2000
    7.7222    0.0000    0.0000 C   0  0  0  0  0  0  0  0  0  0  0  0
    6.2222    0.0000    0.0000 C   0  0  0  0  0  0  0  0  0  0  0  0
    6.0414   -1.4891    0.0000 C   0  0  0  0  0  0  0  0  0  0  0  0
    5.5095   -2.8916    0.0000 C   0  0  0  0  0  0  0  0  0  0  0  0
    4.6574   -4.1261    0.0000 C   0  0  0  0  0  0  0  0  0  0  0  0
    3.5346   -5.1207    0.0000 C   0  0  0  0  0  0  0  0  0  0  0  0
    2.2064   -5.8178    0.0000 C   0  0  0  0  0  0  0  0  0  0  0  0
    0.7500   -6.1768    0.0000 C   0  0  0  0  0  0  0  0  0  0  0  0
   -0.7500   -6.1768    0.0000 C   0  0  0  0  0  0  0  0  0  0  0  0
   -2.2064   -5.8178    0.0000 C   0  0  0  0  0  0  0  0  0  0  0  0
   -3.5346   -5.1207    0.0000 C   0  0  0  0  0  0  0  0  0  0  0  0
   -4.6574   -4.1261    0.0000 C   0  0  0  0  0  0  0  0  0  0  0  0
   -5.5095   -2.8916    0.0000 C   0  0  0  0  0  0  0  0  0  0  0  0
   -6.0414   -1.4891    0.0000 C   0  0  0  0  0  0  0  0  0  0  0  0
   -6.2222    0.0000    0.0000 C   0  0  0  0  0  0  0  0  0  0  0  0
   -6.0414    1.4891    0.0000 C   0  0  0  0  0  0  0  0  0  0  0  0
   -5.5095    2.8916    0.0000 C   0  0  0  0  0  0  0  0  0  0  0  0
   -4.6574    4.1261    0.0000 C   0  0  0  0  0  0  0  0  0  0  0  0
   -3.5346    5.1207    0.0000 C   0  0  0  0  0  0  0  0  0  0  0  0
   -2.2064    5.8178    0.0000 C   0  0  0  0  0  0  0  0  0  0  0  0
   -0.7500    6.1768    0.0000 C   0  0  0  0  0  0  0  0  0  0  0  0
    0.7500    6.1768    0.0000 C   0  0  0  0  0  0  0  0  0  0  0  0
    2.2064    5.8178    0.0000 C   0  0  0  0  0  0  0  0  0  0  0  0
    3.5346    5.1207    0.0000 C   0  0  0  0  0  0  0  0  0  0  0  0
    4.6574    4.1261    0.0000 C   0  0  0  0  0  0  0  0  0  0  0  0
    5.5095    2.8916    0.0000 C   0  0  0  0  0  0  0  0  0  0  0  0
    6.0414    1.4891    0.0000 C   0  0  0  0  0  0  0  0  0  0  0  0
  1  2  1  0
  2  3  2  0
  3  4  1  0
  4  5  2  0
  5  6  2  0
  6  7  2  0
  7  8  1  0
  8  9  2  0
  9 10  1  0
 10 11  2  0
 11 12  1  0
 12 13  2  0
 13 14  1  0
 14 15  2  0
 15 16  1  0
 16 17  2  0
 17 18  1  0
 18 19  2  0
 19 20  1  0
 20 21  2  0
 21 22  1  0
 22 23  2  0
 23 24  1  0
 24 25  2  0
 25 26  1  0
 26 27  2  0
 27  2  1  0
M  END
>  <Title>  (510) 
idAATPgen8

$$$$

     RDKit          2D

 13 13  0  0  0  0  0  0  0  0999 V2000
    4.1621    0.0000    0.0000 C   0  0  0  0  0  0  0  0  0  0  0  0
    2.6621    0.0000    0.0000 C   0  0  0  0  0  0  0  0  0  0  0  0
    2.2395    1.4392    0.0000 C   0  0  0  0  0  0  0  0  0  0  0  0
    1.1059    2.4215    0.0000 C   0  0  0  0  0  0  0  0  0  0  0  0
   -0.3789    2.6350    0.0000 C   0  0  0  0  0  0  0  0  0  0  0  0
   -1.7433    2.0119    0.0000 C   0  0  0  0  0  0  0  0  0  0  0  0
   -2.5543    0.7500    0.0000 C   0  0  0  0  0  0  0  0  0  0  0  0
   -2.5543   -0.7500    0.0000 C   0  0  0  0  0  0  0  0  0  0  0  0
   -1.7433   -2.0119    0.0000 C   0  0  0  0  0  0  0  0  0  0  0  0
   -0.3789   -2.6350    0.0000 C   0  0  0  0  0  0  0  0  0  0  0  0
    1.1059   -2.4215    0.0000 C   0  0  0  0  0  0  0  0  0  0  0  0
    1.7290   -3.7860    0.0000 C   0  0  0  0  0  0  0  0  0  0  0  0
    2.2395   -1.4392    0.0000 C   0  0  0  0  0  0  0  0  0  0  0  0
  1  2  1  0
  2  3  2  0
  3  4  1  0
  4  5  2  0
  5  6  1  0
  6  7  2  0
  7  8  1  0
  8  9  2  0
  9 10  1  0
 10 11  2  0
 11 12  1  0
 11 13  1  0
 13  2  1  0
M  END
>  <Title>  (511) 
idAATQgen8

$$$$

     RDKit          2D

 25 28  0  0  0  0  0  0  0  0999 V2000
    4.9790   -7.8139    0.0000 C   0  0  0  0  0  0  0  0  0  0  0  0
    3.5118   -7.5021    0.0000 C   0  0  0  0  0  0  0  0  0  0  0  0
    2.5081   -8.6168    0.0000 C   0  0  0  0  0  0  0  0  0  0  0  0
    1.0409   -8.3049    0.0000 C   0  0  0  0  0  0  0  0  0  0  0  0
    0.5773   -6.8783    0.0000 C   0  0  0  0  0  0  0  0  0  0  0  0
   -0.8899   -6.5665    0.0000 C   0  0  0  0  0  0  0  0  0  0  0  0
   -2.0046   -7.5702    0.0000 N   0  0  0  0  0  0  0  0  0  0  0  0
   -3.3037   -6.8202    0.0000 N   0  0  0  0  0  0  0  0  0  0  0  0
   -2.9918   -5.3529    0.0000 N   0  0  0  0  0  0  0  0  0  0  0  0
   -1.5000   -5.1962    0.0000 N   0  0  0  0  0  0  0  0  0  0  0  0
   -0.7500   -3.8971    0.0000 C   0  0  0  0  0  0  0  0  0  0  0  0
    0.7500   -3.8971    0.0000 N   0  0  0  0  0  0  0  0  0  0  0  0
    1.5000   -2.5981    0.0000 C   0  0  0  0  0  0  0  0  0  0  0  0
    3.0000   -2.5981    0.0000 O   0  0  0  0  0  0  0  0  0  0  0  0
    0.7500   -1.2990    0.0000 C   0  0  0  0  0  0  0  0  0  0  0  0
    1.5000    0.0000    0.0000 C   0  0  0  0  0  0  0  0  0  0  0  0
    0.7500    1.2990    0.0000 C   0  0  0  0  0  0  0  0  0  0  0  0
   -0.7500    1.2990    0.0000 C   0  0  0  0  0  0  0  0  0  0  0  0
   -1.5000    0.0000    0.0000 C   0  0  0  0  0  0  0  0  0  0  0  0
   -0.7500   -1.2990    0.0000 C   0  0  0  0  0  0  0  0  0  0  0  0
   -1.5000   -2.5981    0.0000 C   0  0  0  0  0  0  0  0  0  0  0  0
   -3.0000   -2.5981    0.0000 O   0  0  0  0  0  0  0  0  0  0  0  0
    1.5810   -5.7636    0.0000 N   0  0  0  0  0  0  0  0  0  0  0  0
    3.0482   -6.0755    0.0000 C   0  0  0  0  0  0  0  0  0  0  0  0
    4.0519   -4.9608    0.0000 O   0  0  0  0  0  0  0  0  0  0  0  0
  1  2  1  0
  2  3  2  0
  3  4  1  0
  4  5  2  0
  5  6  1  0
  6  7  2  0
  7  8  1  0
  8  9  2  0
  9 10  1  0
 10 11  1  0
 11 12  1  0
 12 13  1  0
 13 14  2  0
 13 15  1  0
 15 16  2  0
 16 17  1  0
 17 18  2  0
 18 19  1  0
 19 20  2  0
 20 21  1  0
 21 22  2  0
  5 23  1  0
 23 24  1  0
 24 25  2  0
 24  2  1  0
 10  6  1  0
 21 11  1  0
 20 15  1  0
M  END
>  <Title>  (512) 
idAATRgen8

$$$$

     RDKit          2D

 48 55  0  0  0  0  0  0  0  0999 V2000
    3.0000    0.0000    0.0000 C   0  0  0  0  0  0  0  0  0  0  0  0
    1.5000    0.0000    0.0000 C   0  0  0  0  0  0  0  0  0  0  0  0
    0.7500   -1.2990    0.0000 C   0  0  0  0  0  0  0  0  0  0  0  0
   -0.7500   -1.2990    0.0000 C   0  0  0  0  0  0  0  0  0  0  0  0
   -1.5000    0.0000    0.0000 C   0  0  0  0  0  0  0  0  0  0  0  0
   -3.0000    0.0000    0.0000 C   0  0  0  0  0  0  0  0  0  0  0  0
   -3.8817   -1.2135    0.0000 N   0  0  0  0  0  0  0  0  0  0  0  0
   -5.3083   -0.7500    0.0000 N   0  0  0  0  0  0  0  0  0  0  0  0
   -5.3083    0.7500    0.0000 N   0  0  0  0  0  0  0  0  0  0  0  0
   -3.8817    1.2135    0.0000 N   0  0  0  0  0  0  0  0  0  0  0  0
   -3.4182    2.6401    0.0000 C   0  0  0  0  0  0  0  0  0  0  0  0
   -1.9509    2.9520    0.0000 C   0  0  0  0  0  0  0  0  0  0  0  0
   -1.4874    4.3786    0.0000 C   0  0  0  0  0  0  0  0  0  0  0  0
   -2.4911    5.4933    0.0000 C   0  0  0  0  0  0  0  0  0  0  0  0
   -2.0276    6.9199    0.0000 C   0  0  0  0  0  0  0  0  0  0  0  0
   -2.9093    8.1334    0.0000 N   0  0  0  0  0  0  0  0  0  0  0  0
   -2.0276    9.3469    0.0000 N   0  0  0  0  0  0  0  0  0  0  0  0
   -0.6010    8.8834    0.0000 N   0  0  0  0  0  0  0  0  0  0  0  0
   -0.6010    7.3834    0.0000 N   0  0  0  0  0  0  0  0  0  0  0  0
    0.6125    6.5017    0.0000 C   0  0  0  0  0  0  0  0  0  0  0  0
    0.4557    5.0099    0.0000 C   0  0  0  0  0  0  0  0  0  0  0  0
    1.6693    4.1283    0.0000 C   0  0  0  0  0  0  0  0  0  0  0  0
    3.0396    4.7384    0.0000 C   0  0  0  0  0  0  0  0  0  0  0  0
    3.1964    6.2301    0.0000 C   0  0  0  0  0  0  0  0  0  0  0  0
    1.9829    7.1118    0.0000 C   0  0  0  0  0  0  0  0  0  0  0  0
   -3.9583    5.1814    0.0000 C   0  0  0  0  0  0  0  0  0  0  0  0
   -4.4218    3.7548    0.0000 C   0  0  0  0  0  0  0  0  0  0  0  0
   -5.8891    3.4430    0.0000 C   0  0  0  0  0  0  0  0  0  0  0  0
   -6.4992    2.0726    0.0000 N   0  0  0  0  0  0  0  0  0  0  0  0
   -7.9910    2.2294    0.0000 N   0  0  0  0  0  0  0  0  0  0  0  0
   -8.3028    3.6967    0.0000 N   0  0  0  0  0  0  0  0  0  0  0  0
   -7.0038    4.4467    0.0000 N   0  0  0  0  0  0  0  0  0  0  0  0
   -6.8470    5.9384    0.0000 C   0  0  0  0  0  0  0  0  0  0  0  0
   -5.4767    6.5485    0.0000 C   0  0  0  0  0  0  0  0  0  0  0  0
   -5.3199    8.0403    0.0000 C   0  0  0  0  0  0  0  0  0  0  0  0
   -6.5334    8.9220    0.0000 C   0  0  0  0  0  0  0  0  0  0  0  0
   -7.9037    8.3119    0.0000 C   0  0  0  0  0  0  0  0  0  0  0  0
   -8.0605    6.8201    0.0000 C   0  0  0  0  0  0  0  0  0  0  0  0
   -9.4308    6.2100    0.0000 C   0  0  0  0  0  0  0  0  0  0  0  0
  -10.6444    7.0917    0.0000 C   0  0  0  0  0  0  0  0  0  0  0  0
  -12.0147    6.4816    0.0000 C   0  0  0  0  0  0  0  0  0  0  0  0
  -12.1715    4.9898    0.0000 C   0  0  0  0  0  0  0  0  0  0  0  0
  -13.5418    4.3797    0.0000 C   0  0  0  0  0  0  0  0  0  0  0  0
  -10.9579    4.1081    0.0000 C   0  0  0  0  0  0  0  0  0  0  0  0
  -11.1147    2.6163    0.0000 O   0  0  0  0  0  0  0  0  0  0  0  0
   -9.5876    4.7182    0.0000 N   0  0  0  0  0  0  0  0  0  0  0  0
   -0.7500    1.2990    0.0000 N   0  0  0  0  0  0  0  0  0  0  0  0
    0.7500    1.2990    0.0000 C   0  0  0  0  0  0  0  0  0  0  0  0
  1  2  1  0
  2  3  2  0
  3  4  1  0
  4  5  2  0
  5  6  1  0
  6  7  2  0
  7  8  1  0
  8  9  2  0
  9 10  1  0
 10 11  1  0
 11 12  2  0
 12 13  1  0
 13 14  2  0
 14 15  1  0
 15 16  2  0
 16 17  1  0
 17 18  2  0
 18 19  1  0
 19 20  1  0
 20 21  2  0
 21 22  1  0
 22 23  2  0
 23 24  1  0
 24 25  2  0
 14 26  1  0
 26 27  2  0
 27 28  1  0
 28 29  2  0
 29 30  1  0
 30 31  2  0
 31 32  1  0
 32 33  1  0
 33 34  2  0
 34 35  1  0
 35 36  2  0
 36 37  1  0
 37 38  2  0
 38 39  1  0
 39 40  2  0
 40 41  1  0
 41 42  2  0
 42 43  1  0
 42 44  1  0
 44 45  2  0
 44 46  1  0
  5 47  1  0
 47 48  1  0
 48  2  1  0
 10  6  1  0
 27 11  1  0
 32 28  1  0
 38 33  1  0
 46 39  1  0
 19 15  1  0
 25 20  1  0
M  END
>  <Title>  (513) 
idAATSgen8

$$$$

     RDKit          2D

 31 31  0  0  0  0  0  0  0  0999 V2000
    8.9486   -1.2990    0.0000 C   0  0  0  0  0  0  0  0  0  0  0  0
    8.1986    0.0000    0.0000 O   0  0  0  0  0  0  0  0  0  0  0  0
    6.6986    0.0000    0.0000 C   0  0  0  0  0  0  0  0  0  0  0  0
    6.5306   -1.4906    0.0000 C   0  0  0  0  0  0  0  0  0  0  0  0
    6.0352   -2.9064    0.0000 C   0  0  0  0  0  0  0  0  0  0  0  0
    5.2371   -4.1765    0.0000 C   0  0  0  0  0  0  0  0  0  0  0  0
    4.1765   -5.2371    0.0000 C   0  0  0  0  0  0  0  0  0  0  0  0
    2.9064   -6.0352    0.0000 C   0  0  0  0  0  0  0  0  0  0  0  0
    1.4906   -6.5306    0.0000 C   0  0  0  0  0  0  0  0  0  0  0  0
   -0.0000   -6.6986    0.0000 C   0  0  0  0  0  0  0  0  0  0  0  0
   -1.4906   -6.5306    0.0000 C   0  0  0  0  0  0  0  0  0  0  0  0
   -2.9064   -6.0352    0.0000 C   0  0  0  0  0  0  0  0  0  0  0  0
   -4.1765   -5.2371    0.0000 C   0  0  0  0  0  0  0  0  0  0  0  0
   -5.2371   -4.1765    0.0000 C   0  0  0  0  0  0  0  0  0  0  0  0
   -6.0352   -2.9064    0.0000 C   0  0  0  0  0  0  0  0  0  0  0  0
   -6.5306   -1.4906    0.0000 C   0  0  0  0  0  0  0  0  0  0  0  0
   -6.6986    0.0000    0.0000 C   0  0  0  0  0  0  0  0  0  0  0  0
   -6.5306    1.4906    0.0000 C   0  0  0  0  0  0  0  0  0  0  0  0
   -6.0352    2.9064    0.0000 C   0  0  0  0  0  0  0  0  0  0  0  0
   -5.2371    4.1765    0.0000 C   0  0  0  0  0  0  0  0  0  0  0  0
   -4.1765    5.2371    0.0000 C   0  0  0  0  0  0  0  0  0  0  0  0
   -2.9064    6.0352    0.0000 C   0  0  0  0  0  0  0  0  0  0  0  0
   -1.4906    6.5306    0.0000 C   0  0  0  0  0  0  0  0  0  0  0  0
    0.0000    6.6986    0.0000 C   0  0  0  0  0  0  0  0  0  0  0  0
    1.4906    6.5306    0.0000 C   0  0  0  0  0  0  0  0  0  0  0  0
    2.9064    6.0352    0.0000 C   0  0  0  0  0  0  0  0  0  0  0  0
    4.1765    5.2371    0.0000 C   0  0  0  0  0  0  0  0  0  0  0  0
    5.2371    4.1765    0.0000 C   0  0  0  0  0  0  0  0  0  0  0  0
    6.0352    2.9064    0.0000 C   0  0  0  0  0  0  0  0  0  0  0  0
    6.5306    1.4906    0.0000 C   0  0  0  0  0  0  0  0  0  0  0  0
    7.9930    1.8243    0.0000 C   0  0  0  0  0  0  0  0  0  0  0  0
  1  2  1  0
  2  3  1  0
  3  4  2  0
  4  5  1  0
  5  6  2  0
  6  7  1  0
  7  8  2  0
  8  9  1  0
  9 10  2  0
 10 11  1  0
 11 12  2  0
 12 13  1  0
 13 14  2  0
 14 15  1  0
 15 16  2  0
 16 17  1  0
 17 18  2  0
 18 19  1  0
 19 20  2  0
 20 21  1  0
 21 22  2  0
 22 23  1  0
 23 24  2  0
 24 25  1  0
 25 26  2  0
 26 27  1  0
 27 28  2  0
 28 29  1  0
 29 30  2  0
 30 31  1  0
 30  3  1  0
M  END
>  <Title>  (514) 
idAATTgen8

$$$$

     RDKit          2D

 21 21  0  0  0  0  0  0  0  0999 V2000
    7.5567   -0.0000    0.0000 N   0  0  0  0  0  0  0  0  0  0  0  0
    6.0567    0.0000    0.0000 C   0  0  0  0  0  0  0  0  0  0  0  0
    4.5567    0.0000    0.0000 C   0  0  0  0  0  0  0  0  0  0  0  0
    4.3098    1.4795    0.0000 C   0  0  0  0  0  0  0  0  0  0  0  0
    3.5958    2.7988    0.0000 C   0  0  0  0  0  0  0  0  0  0  0  0
    2.4923    3.8147    0.0000 C   0  0  0  0  0  0  0  0  0  0  0  0
    1.1186    4.4172    0.0000 C   0  0  0  0  0  0  0  0  0  0  0  0
   -0.3763    4.5411    0.0000 C   0  0  0  0  0  0  0  0  0  0  0  0
   -1.8304    4.1729    0.0000 C   0  0  0  0  0  0  0  0  0  0  0  0
   -3.0861    3.3524    0.0000 C   0  0  0  0  0  0  0  0  0  0  0  0
   -4.0075    2.1687    0.0000 C   0  0  0  0  0  0  0  0  0  0  0  0
   -4.4945    0.7500    0.0000 C   0  0  0  0  0  0  0  0  0  0  0  0
   -4.4945   -0.7500    0.0000 C   0  0  0  0  0  0  0  0  0  0  0  0
   -4.0075   -2.1687    0.0000 C   0  0  0  0  0  0  0  0  0  0  0  0
   -3.0861   -3.3524    0.0000 C   0  0  0  0  0  0  0  0  0  0  0  0
   -1.8304   -4.1729    0.0000 C   0  0  0  0  0  0  0  0  0  0  0  0
   -0.3763   -4.5411    0.0000 C   0  0  0  0  0  0  0  0  0  0  0  0
    1.1186   -4.4172    0.0000 C   0  0  0  0  0  0  0  0  0  0  0  0
    2.4923   -3.8147    0.0000 C   0  0  0  0  0  0  0  0  0  0  0  0
    3.5958   -2.7988    0.0000 C   0  0  0  0  0  0  0  0  0  0  0  0
    4.3098   -1.4795    0.0000 C   0  0  0  0  0  0  0  0  0  0  0  0
  1  2  3  0
  2  3  1  0
  3  4  1  0
  4  5  2  0
  5  6  1  0
  6  7  2  0
  7  8  1  0
  8  9  2  0
  9 10  1  0
 10 11  2  0
 11 12  1  0
 12 13  2  0
 13 14  1  0
 14 15  2  0
 15 16  1  0
 16 17  2  0
 17 18  1  0
 18 19  2  0
 19 20  1  0
 20 21  1  0
 21  3  1  0
M  END
>  <Title>  (515) 
idAATUgen8

$$$$

     RDKit          2D

 36 41  0  0  0  0  0  0  0  0999 V2000
    3.2286   -0.0000    0.0000 C   0  0  0  0  0  0  0  0  0  0  0  0
    1.7286    0.0000    0.0000 C   0  0  0  0  0  0  0  0  0  0  0  0
    1.0777    1.3515    0.0000 C   0  0  0  0  0  0  0  0  0  0  0  0
   -0.3846    1.6852    0.0000 C   0  0  0  0  0  0  0  0  0  0  0  0
   -1.5574    0.7500    0.0000 C   0  0  0  0  0  0  0  0  0  0  0  0
   -2.9088    1.4008    0.0000 C   0  0  0  0  0  0  0  0  0  0  0  0
   -4.2297    0.6900    0.0000 N   0  0  0  0  0  0  0  0  0  0  0  0
   -5.3139    1.7266    0.0000 N   0  0  0  0  0  0  0  0  0  0  0  0
   -4.6631    3.0781    0.0000 N   0  0  0  0  0  0  0  0  0  0  0  0
   -3.1767    2.8767    0.0000 N   0  0  0  0  0  0  0  0  0  0  0  0
   -2.1401    3.9609    0.0000 N   0  0  0  0  0  0  0  0  0  0  0  0
   -0.6829    3.6053    0.0000 N   0  0  0  0  0  0  0  0  0  0  0  0
    0.3537    4.6895    0.0000 N   0  0  0  0  0  0  0  0  0  0  0  0
   -0.0669    6.1293    0.0000 N   0  0  0  0  0  0  0  0  0  0  0  0
   -1.5241    6.4849    0.0000 N   0  0  0  0  0  0  0  0  0  0  0  0
   -2.5607    5.4007    0.0000 N   0  0  0  0  0  0  0  0  0  0  0  0
   -4.0180    5.7563    0.0000 C   0  0  0  0  0  0  0  0  0  0  0  0
   -5.1622    4.7864    0.0000 C   0  0  0  0  0  0  0  0  0  0  0  0
   -6.4382    5.5750    0.0000 C   0  0  0  0  0  0  0  0  0  0  0  0
   -6.0826    7.0322    0.0000 C   0  0  0  0  0  0  0  0  0  0  0  0
   -7.0525    8.1765    0.0000 C   0  0  0  0  0  0  0  0  0  0  0  0
   -8.5483    8.0644    0.0000 N   0  0  0  0  0  0  0  0  0  0  0  0
   -9.1171    9.4523    0.0000 N   0  0  0  0  0  0  0  0  0  0  0  0
   -7.9729   10.4222    0.0000 N   0  0  0  0  0  0  0  0  0  0  0  0
   -6.6969    9.6337    0.0000 N   0  0  0  0  0  0  0  0  0  0  0  0
   -5.3089   10.2025    0.0000 C   0  0  0  0  0  0  0  0  0  0  0  0
   -4.1223    9.2849    0.0000 C   0  0  0  0  0  0  0  0  0  0  0  0
   -2.7344    9.8538    0.0000 C   0  0  0  0  0  0  0  0  0  0  0  0
   -2.5330   11.3402    0.0000 C   0  0  0  0  0  0  0  0  0  0  0  0
   -3.7196   12.2578    0.0000 C   0  0  0  0  0  0  0  0  0  0  0  0
   -5.1076   11.6889    0.0000 C   0  0  0  0  0  0  0  0  0  0  0  0
   -4.5868    7.1443    0.0000 C   0  0  0  0  0  0  0  0  0  0  0  0
   -3.7983    8.4203    0.0000 O   0  0  0  0  0  0  0  0  0  0  0  0
   -1.5574   -0.7500    0.0000 N   0  0  0  0  0  0  0  0  0  0  0  0
   -0.3846   -1.6852    0.0000 C   0  0  0  0  0  0  0  0  0  0  0  0
    1.0777   -1.3515    0.0000 C   0  0  0  0  0  0  0  0  0  0  0  0
  1  2  1  0
  2  3  2  0
  3  4  1  0
  4  5  2  0
  5  6  1  0
  6  7  2  0
  7  8  1  0
  8  9  2  0
  9 10  1  0
 10 11  1  0
 11 12  1  0
 12 13  2  0
 13 14  1  0
 14 15  2  0
 15 16  1  0
 16 17  1  0
 17 18  2  0
 18 19  1  0
 19 20  2  0
 20 21  1  0
 21 22  2  0
 22 23  1  0
 23 24  2  0
 24 25  1  0
 25 26  1  0
 26 27  2  0
 27 28  1  0
 28 29  2  0
 29 30  1  0
 30 31  2  0
 20 32  1  0
 32 33  2  0
  5 34  1  0
 34 35  1  0
 35 36  2  0
 36  2  1  0
 10  6  1  0
 16 11  1  0
 32 17  1  0
 25 21  1  0
 31 26  1  0
M  END
>  <Title>  (516) 
idAATVgen8

$$$$

     RDKit          2D

 31 31  0  0  0  0  0  0  0  0999 V2000
    8.9486   -1.2990    0.0000 C   0  0  0  0  0  0  0  0  0  0  0  0
    8.1986    0.0000    0.0000 O   0  0  0  0  0  0  0  0  0  0  0  0
    6.6986    0.0000    0.0000 C   0  0  0  0  0  0  0  0  0  0  0  0
    6.5306   -1.4906    0.0000 C   0  0  0  0  0  0  0  0  0  0  0  0
    6.0352   -2.9064    0.0000 C   0  0  0  0  0  0  0  0  0  0  0  0
    5.2371   -4.1765    0.0000 C   0  0  0  0  0  0  0  0  0  0  0  0
    4.1765   -5.2371    0.0000 C   0  0  0  0  0  0  0  0  0  0  0  0
    2.9064   -6.0352    0.0000 C   0  0  0  0  0  0  0  0  0  0  0  0
    1.4906   -6.5306    0.0000 C   0  0  0  0  0  0  0  0  0  0  0  0
   -0.0000   -6.6986    0.0000 C   0  0  0  0  0  0  0  0  0  0  0  0
   -1.4906   -6.5306    0.0000 C   0  0  0  0  0  0  0  0  0  0  0  0
   -2.9064   -6.0352    0.0000 C   0  0  0  0  0  0  0  0  0  0  0  0
   -4.1765   -5.2371    0.0000 C   0  0  0  0  0  0  0  0  0  0  0  0
   -5.2371   -4.1765    0.0000 C   0  0  0  0  0  0  0  0  0  0  0  0
   -6.0352   -2.9064    0.0000 C   0  0  0  0  0  0  0  0  0  0  0  0
   -6.5306   -1.4906    0.0000 C   0  0  0  0  0  0  0  0  0  0  0  0
   -6.6986    0.0000    0.0000 C   0  0  0  0  0  0  0  0  0  0  0  0
   -6.5306    1.4906    0.0000 C   0  0  0  0  0  0  0  0  0  0  0  0
   -6.0352    2.9064    0.0000 C   0  0  0  0  0  0  0  0  0  0  0  0
   -5.2371    4.1765    0.0000 C   0  0  0  0  0  0  0  0  0  0  0  0
   -4.1765    5.2371    0.0000 C   0  0  0  0  0  0  0  0  0  0  0  0
   -2.9064    6.0352    0.0000 C   0  0  0  0  0  0  0  0  0  0  0  0
   -1.4906    6.5306    0.0000 C   0  0  0  0  0  0  0  0  0  0  0  0
    0.0000    6.6986    0.0000 C   0  0  0  0  0  0  0  0  0  0  0  0
    1.4906    6.5306    0.0000 C   0  0  0  0  0  0  0  0  0  0  0  0
    2.9064    6.0352    0.0000 C   0  0  0  0  0  0  0  0  0  0  0  0
    4.1765    5.2371    0.0000 C   0  0  0  0  0  0  0  0  0  0  0  0
    5.2371    4.1765    0.0000 C   0  0  0  0  0  0  0  0  0  0  0  0
    6.0352    2.9064    0.0000 C   0  0  0  0  0  0  0  0  0  0  0  0
    6.5306    1.4906    0.0000 C   0  0  0  0  0  0  0  0  0  0  0  0
    7.9930    1.8243    0.0000 O   0  0  0  0  0  0  0  0  0  0  0  0
  1  2  1  0
  2  3  1  0
  3  4  2  0
  4  5  1  0
  5  6  2  0
  6  7  1  0
  7  8  2  0
  8  9  1  0
  9 10  2  0
 10 11  1  0
 11 12  2  0
 12 13  1  0
 13 14  2  0
 14 15  1  0
 15 16  2  0
 16 17  1  0
 17 18  2  0
 18 19  1  0
 19 20  2  0
 20 21  1  0
 21 22  2  0
 22 23  1  0
 23 24  2  0
 24 25  1  0
 25 26  2  0
 26 27  1  0
 27 28  2  0
 28 29  1  0
 29 30  2  0
 30 31  1  0
 30  3  1  0
M  END
>  <Title>  (517) 
idAATWgen8

$$$$

     RDKit          2D

 15 15  0  0  0  0  0  0  0  0999 V2000
    4.6339    0.0000    0.0000 C   0  0  0  0  0  0  0  0  0  0  0  0
    3.1339    0.0000    0.0000 C   0  0  0  0  0  0  0  0  0  0  0  0
    2.7750    1.4564    0.0000 C   0  0  0  0  0  0  0  0  0  0  0  0
    1.7803    2.5792    0.0000 C   0  0  0  0  0  0  0  0  0  0  0  0
    0.3778    3.1111    0.0000 N   0  0  0  0  0  0  0  0  0  0  0  0
   -1.1113    2.9303    0.0000 N   0  0  0  0  0  0  0  0  0  0  0  0
   -2.3458    2.0782    0.0000 C   0  0  0  0  0  0  0  0  0  0  0  0
   -3.0429    0.7500    0.0000 N   0  0  0  0  0  0  0  0  0  0  0  0
   -3.0429   -0.7500    0.0000 N   0  0  0  0  0  0  0  0  0  0  0  0
   -2.3458   -2.0782    0.0000 N   0  0  0  0  0  0  0  0  0  0  0  0
   -1.1113   -2.9303    0.0000 N   0  0  0  0  0  0  0  0  0  0  0  0
    0.3778   -3.1111    0.0000 C   0  0  0  0  0  0  0  0  0  0  0  0
    0.5586   -4.6001    0.0000 F   0  0  0  0  0  0  0  0  0  0  0  0
    1.7803   -2.5792    0.0000 C   0  0  0  0  0  0  0  0  0  0  0  0
    2.7750   -1.4564    0.0000 C   0  0  0  0  0  0  0  0  0  0  0  0
  1  2  1  0
  2  3  2  0
  3  4  1  0
  4  5  2  0
  5  6  1  0
  6  7  2  0
  7  8  2  0
  8  9  1  0
  9 10  2  0
 10 11  1  0
 11 12  2  0
 12 13  1  0
 12 14  1  0
 14 15  2  0
 15  2  1  0
M  END
>  <Title>  (518) 
idAATXgen8

$$$$

     RDKit          2D

 43 49  0  0  0  0  0  0  0  0999 V2000
    3.7500   -1.2990    0.0000 C   0  0  0  0  0  0  0  0  0  0  0  0
    3.0000    0.0000    0.0000 O   0  0  0  0  0  0  0  0  0  0  0  0
    1.5000    0.0000    0.0000 C   0  0  0  0  0  0  0  0  0  0  0  0
    0.7500   -1.2990    0.0000 C   0  0  0  0  0  0  0  0  0  0  0  0
   -0.7500   -1.2990    0.0000 C   0  0  0  0  0  0  0  0  0  0  0  0
   -1.5000    0.0000    0.0000 C   0  0  0  0  0  0  0  0  0  0  0  0
   -3.0000    0.0000    0.0000 C   0  0  0  0  0  0  0  0  0  0  0  0
   -3.8817   -1.2135    0.0000 N   0  0  0  0  0  0  0  0  0  0  0  0
   -5.3083   -0.7500    0.0000 N   0  0  0  0  0  0  0  0  0  0  0  0
   -5.3083    0.7500    0.0000 N   0  0  0  0  0  0  0  0  0  0  0  0
   -3.8817    1.2135    0.0000 N   0  0  0  0  0  0  0  0  0  0  0  0
   -3.4182    2.6401    0.0000 C   0  0  0  0  0  0  0  0  0  0  0  0
   -1.9509    2.9520    0.0000 C   0  0  0  0  0  0  0  0  0  0  0  0
   -1.4874    4.3786    0.0000 C   0  0  0  0  0  0  0  0  0  0  0  0
   -2.4911    5.4933    0.0000 C   0  0  0  0  0  0  0  0  0  0  0  0
   -2.0276    6.9199    0.0000 C   0  0  0  0  0  0  0  0  0  0  0  0
   -2.9093    8.1334    0.0000 N   0  0  0  0  0  0  0  0  0  0  0  0
   -2.0276    9.3469    0.0000 N   0  0  0  0  0  0  0  0  0  0  0  0
   -0.6010    8.8834    0.0000 N   0  0  0  0  0  0  0  0  0  0  0  0
   -0.6010    7.3834    0.0000 N   0  0  0  0  0  0  0  0  0  0  0  0
    0.6125    6.5017    0.0000 C   0  0  0  0  0  0  0  0  0  0  0  0
    0.4557    5.0099    0.0000 C   0  0  0  0  0  0  0  0  0  0  0  0
    1.6693    4.1283    0.0000 C   0  0  0  0  0  0  0  0  0  0  0  0
    3.0396    4.7384    0.0000 C   0  0  0  0  0  0  0  0  0  0  0  0
    3.1964    6.2301    0.0000 N   0  0  0  0  0  0  0  0  0  0  0  0
    1.9829    7.1118    0.0000 C   0  0  0  0  0  0  0  0  0  0  0  0
   -3.9583    5.1814    0.0000 C   0  0  0  0  0  0  0  0  0  0  0  0
   -4.4218    3.7548    0.0000 C   0  0  0  0  0  0  0  0  0  0  0  0
   -5.8891    3.4430    0.0000 C   0  0  0  0  0  0  0  0  0  0  0  0
   -6.4992    2.0726    0.0000 C   0  0  0  0  0  0  0  0  0  0  0  0
   -7.9910    2.2294    0.0000 C   0  0  0  0  0  0  0  0  0  0  0  0
   -8.3028    3.6967    0.0000 C   0  0  0  0  0  0  0  0  0  0  0  0
   -9.6731    4.3068    0.0000 C   0  0  0  0  0  0  0  0  0  0  0  0
   -9.8299    5.7985    0.0000 C   0  0  0  0  0  0  0  0  0  0  0  0
  -11.2003    6.4086    0.0000 C   0  0  0  0  0  0  0  0  0  0  0  0
  -12.4138    5.5270    0.0000 C   0  0  0  0  0  0  0  0  0  0  0  0
  -12.2570    4.0352    0.0000 C   0  0  0  0  0  0  0  0  0  0  0  0
  -10.8867    3.4251    0.0000 C   0  0  0  0  0  0  0  0  0  0  0  0
   -7.0038    4.4467    0.0000 C   0  0  0  0  0  0  0  0  0  0  0  0
   -6.8470    5.9384    0.0000 O   0  0  0  0  0  0  0  0  0  0  0  0
   -0.7500    1.2990    0.0000 N   0  0  0  0  0  0  0  0  0  0  0  0
    0.7500    1.2990    0.0000 C   0  0  0  0  0  0  0  0  0  0  0  0
    1.5000    2.5981    0.0000 O   0  0  0  0  0  0  0  0  0  0  0  0
  1  2  1  0
  2  3  1  0
  3  4  2  0
  4  5  1  0
  5  6  2  0
  6  7  1  0
  7  8  2  0
  8  9  1  0
  9 10  2  0
 10 11  1  0
 11 12  1  0
 12 13  2  0
 13 14  1  0
 14 15  2  0
 15 16  1  0
 16 17  2  0
 17 18  1  0
 18 19  2  0
 19 20  1  0
 20 21  1  0
 21 22  2  0
 22 23  1  0
 23 24  2  0
 24 25  1  0
 25 26  2  0
 15 27  1  0
 27 28  2  0
 28 29  1  0
 29 30  2  0
 30 31  1  0
 31 32  2  0
 32 33  1  0
 33 34  2  0
 34 35  1  0
 35 36  2  0
 36 37  1  0
 37 38  2  0
 32 39  1  0
 39 40  2  0
  6 41  1  0
 41 42  1  0
 42 43  2  0
 42  3  1  0
 11  7  1  0
 28 12  1  0
 39 29  1  0
 20 16  1  0
 26 21  1  0
 38 33  1  0
M  END
>  <Title>  (519) 
idAATYgen8

$$$$

     RDKit          2D

  6  6  0  0  0  0  0  0  0  0999 V2000
    2.7760    0.0000    0.0000 O   0  0  0  0  0  0  0  0  0  0  0  0
    1.2760    0.0000    0.0000 C   0  0  0  0  0  0  0  0  0  0  0  0
    0.3943    1.2135    0.0000 C   0  0  0  0  0  0  0  0  0  0  0  0
   -1.0323    0.7500    0.0000 C   0  0  0  0  0  0  0  0  0  0  0  0
   -1.0323   -0.7500    0.0000 C   0  0  0  0  0  0  0  0  0  0  0  0
    0.3943   -1.2135    0.0000 N   0  0  0  0  0  0  0  0  0  0  0  0
  1  2  1  0
  2  3  2  0
  3  4  1  0
  4  5  2  0
  5  6  1  0
  6  2  1  0
M  END
>  <Title>  (520) 
idAATZgen8

$$$$

     RDKit          2D

 56 63  0  0  0  0  0  0  0  0999 V2000
   -7.0351    6.2089    0.0000 C   0  0  0  0  0  0  0  0  0  0  0  0
   -5.8215    7.0906    0.0000 C   0  0  0  0  0  0  0  0  0  0  0  0
   -5.9783    8.5824    0.0000 C   0  0  0  0  0  0  0  0  0  0  0  0
   -4.7648    9.4640    0.0000 C   0  0  0  0  0  0  0  0  0  0  0  0
   -3.3945    8.8539    0.0000 C   0  0  0  0  0  0  0  0  0  0  0  0
   -2.1810    9.7356    0.0000 C   0  0  0  0  0  0  0  0  0  0  0  0
   -2.1810   11.2356    0.0000 N   0  0  0  0  0  0  0  0  0  0  0  0
   -0.7544   11.6991    0.0000 N   0  0  0  0  0  0  0  0  0  0  0  0
    0.1273   10.4856    0.0000 N   0  0  0  0  0  0  0  0  0  0  0  0
   -0.7544    9.2721    0.0000 N   0  0  0  0  0  0  0  0  0  0  0  0
   -0.2908    7.8455    0.0000 C   0  0  0  0  0  0  0  0  0  0  0  0
   -1.5489    7.0285    0.0000 C   0  0  0  0  0  0  0  0  0  0  0  0
   -2.2298    5.6920    0.0000 C   0  0  0  0  0  0  0  0  0  0  0  0
   -2.1513    4.1941    0.0000 C   0  0  0  0  0  0  0  0  0  0  0  0
   -0.7248    4.6576    0.0000 C   0  0  0  0  0  0  0  0  0  0  0  0
    0.6118    3.9766    0.0000 C   0  0  0  0  0  0  0  0  0  0  0  0
    1.7524    4.9508    0.0000 C   0  0  0  0  0  0  0  0  0  0  0  0
    1.4790    6.4257    0.0000 C   0  0  0  0  0  0  0  0  0  0  0  0
    2.6196    7.3998    0.0000 C   0  0  0  0  0  0  0  0  0  0  0  0
    4.0336    6.8991    0.0000 C   0  0  0  0  0  0  0  0  0  0  0  0
    4.3069    5.4243    0.0000 C   0  0  0  0  0  0  0  0  0  0  0  0
    3.1663    4.4501    0.0000 C   0  0  0  0  0  0  0  0  0  0  0  0
    3.4397    2.9752    0.0000 C   0  0  0  0  0  0  0  0  0  0  0  0
    4.8536    2.4745    0.0000 C   0  0  0  0  0  0  0  0  0  0  0  0
    5.1270    0.9996    0.0000 C   0  0  0  0  0  0  0  0  0  0  0  0
    3.9864    0.0254    0.0000 C   0  0  0  0  0  0  0  0  0  0  0  0
    4.2597   -1.4494    0.0000 C   0  0  0  0  0  0  0  0  0  0  0  0
    3.1191   -2.4236    0.0000 O   0  0  0  0  0  0  0  0  0  0  0  0
    5.6737   -1.9502    0.0000 N   0  0  0  0  0  0  0  0  0  0  0  0
    5.9471   -3.4250    0.0000 O   0  0  0  0  0  0  0  0  0  0  0  0
    2.5724    0.5261    0.0000 C   0  0  0  0  0  0  0  0  0  0  0  0
    2.2991    2.0010    0.0000 C   0  0  0  0  0  0  0  0  0  0  0  0
    1.0753    2.5500    0.0000 C   0  0  0  0  0  0  0  0  0  0  0  0
    2.7581    3.1506    0.0000 C   0  0  0  0  0  0  0  0  0  0  0  0
    3.4391    4.4871    0.0000 C   0  0  0  0  0  0  0  0  0  0  0  0
    3.3606    5.9850    0.0000 C   0  0  0  0  0  0  0  0  0  0  0  0
    4.7871    6.4485    0.0000 C   0  0  0  0  0  0  0  0  0  0  0  0
    4.9885    7.9350    0.0000 C   0  0  0  0  0  0  0  0  0  0  0  0
    6.2762    8.7043    0.0000 C   0  0  0  0  0  0  0  0  0  0  0  0
    7.6805    8.1772    0.0000 C   0  0  0  0  0  0  0  0  0  0  0  0
    8.1441    6.7507    0.0000 C   0  0  0  0  0  0  0  0  0  0  0  0
    7.3177    5.4988    0.0000 C   0  0  0  0  0  0  0  0  0  0  0  0
    5.8237    5.3643    0.0000 C   0  0  0  0  0  0  0  0  0  0  0  0
    2.5436    7.2430    0.0000 C   0  0  0  0  0  0  0  0  0  0  0  0
    1.2071    7.9240    0.0000 C   0  0  0  0  0  0  0  0  0  0  0  0
    0.3943    1.2135    0.0000 N   0  0  0  0  0  0  0  0  0  0  0  0
    1.2760    0.0000    0.0000 N   0  0  0  0  0  0  0  0  0  0  0  0
    0.3943   -1.2135    0.0000 N   0  0  0  0  0  0  0  0  0  0  0  0
   -1.0323   -0.7500    0.0000 N   0  0  0  0  0  0  0  0  0  0  0  0
   -1.0323    0.7500    0.0000 C   0  0  0  0  0  0  0  0  0  0  0  0
   -2.3688    1.4310    0.0000 N   0  0  0  0  0  0  0  0  0  0  0  0
   -2.8323    2.8576    0.0000 C   0  0  0  0  0  0  0  0  0  0  0  0
   -4.3277    2.9753    0.0000 O   0  0  0  0  0  0  0  0  0  0  0  0
   -3.2377    7.3621    0.0000 C   0  0  0  0  0  0  0  0  0  0  0  0
   -2.0557    6.4386    0.0000 O   0  0  0  0  0  0  0  0  0  0  0  0
   -4.4512    6.4805    0.0000 N   0  0  0  0  0  0  0  0  0  0  0  0
  1  2  1  0
  2  3  2  0
  3  4  1  0
  4  5  2  0
  5  6  1  0
  6  7  2  0
  7  8  1  0
  8  9  2  0
  9 10  1  0
 10 11  1  0
 11 12  2  0
 12 13  1  0
 13 14  2  0
 14 15  1  0
 15 16  2  0
 16 17  1  0
 17 18  2  0
 18 19  1  0
 19 20  2  0
 20 21  1  0
 21 22  2  0
 22 23  1  0
 23 24  2  0
 24 25  1  0
 25 26  2  0
 26 27  1  0
 27 28  2  0
 27 29  1  0
 29 30  1  0
 26 31  1  0
 31 32  1  0
 16 33  1  0
 33 34  2  0
 34 35  1  0
 35 36  2  0
 36 37  1  0
 37 38  1  0
 38 39  2  0
 39 40  1  0
 40 41  2  0
 41 42  1  0
 42 43  1  0
 36 44  1  0
 44 45  2  0
 33 46  1  0
 46 47  1  0
 47 48  2  0
 48 49  1  0
 49 50  2  0
 50 51  1  0
 51 52  1  0
 52 53  2  0
  5 54  1  0
 54 55  2  0
 54 56  1  0
 56  2  1  0
 10  6  1  0
 45 11  1  0
 50 46  1  0
 52 14  1  0
 22 17  1  0
 32 23  1  0
 43 37  1  0
M  END
>  <Title>  (521) 
idAAUAgen8

$$$$

     RDKit          2D

 21 21  0  0  0  0  0  0  0  0999 V2000
    6.2943    0.0000    0.0000 C   0  0  0  0  0  0  0  0  0  0  0  0
    4.7943    0.0000    0.0000 C   0  0  0  0  0  0  0  0  0  0  0  0
    4.5597   -1.4815    0.0000 N   0  0  0  0  0  0  0  0  0  0  0  0
    3.8787   -2.8180    0.0000 C   0  0  0  0  0  0  0  0  0  0  0  0
    2.8180   -3.8787    0.0000 N   0  0  0  0  0  0  0  0  0  0  0  0
    1.4815   -4.5597    0.0000 N   0  0  0  0  0  0  0  0  0  0  0  0
   -0.0000   -4.7943    0.0000 N   0  0  0  0  0  0  0  0  0  0  0  0
   -1.4815   -4.5597    0.0000 N   0  0  0  0  0  0  0  0  0  0  0  0
   -2.8180   -3.8787    0.0000 C   0  0  0  0  0  0  0  0  0  0  0  0
   -3.8787   -2.8180    0.0000 C   0  0  0  0  0  0  0  0  0  0  0  0
   -4.5597   -1.4815    0.0000 C   0  0  0  0  0  0  0  0  0  0  0  0
   -4.7943    0.0000    0.0000 C   0  0  0  0  0  0  0  0  0  0  0  0
   -4.5597    1.4815    0.0000 C   0  0  0  0  0  0  0  0  0  0  0  0
   -3.8787    2.8180    0.0000 C   0  0  0  0  0  0  0  0  0  0  0  0
   -2.8180    3.8787    0.0000 C   0  0  0  0  0  0  0  0  0  0  0  0
   -1.4815    4.5597    0.0000 C   0  0  0  0  0  0  0  0  0  0  0  0
    0.0000    4.7943    0.0000 C   0  0  0  0  0  0  0  0  0  0  0  0
    1.4815    4.5597    0.0000 C   0  0  0  0  0  0  0  0  0  0  0  0
    2.8180    3.8787    0.0000 C   0  0  0  0  0  0  0  0  0  0  0  0
    3.8787    2.8180    0.0000 C   0  0  0  0  0  0  0  0  0  0  0  0
    4.5597    1.4815    0.0000 C   0  0  0  0  0  0  0  0  0  0  0  0
  1  2  1  0
  2  3  2  0
  3  4  1  0
  4  5  2  0
  5  6  1  0
  6  7  2  0
  7  8  1  0
  8  9  2  0
  9 10  1  0
 10 11  2  0
 11 12  1  0
 12 13  2  0
 13 14  1  0
 14 15  2  0
 15 16  1  0
 16 17  2  0
 17 18  1  0
 18 19  2  0
 19 20  1  0
 20 21  2  0
 21  2  1  0
M  END
>  <Title>  (522) 
idAAUBgen8

$$$$

     RDKit          2D

 47 54  0  0  0  0  0  0  0  0999 V2000
    3.0000    0.0000    0.0000 C   0  0  0  0  0  0  0  0  0  0  0  0
    1.5000    0.0000    0.0000 C   0  0  0  0  0  0  0  0  0  0  0  0
    0.7500    1.2990    0.0000 C   0  0  0  0  0  0  0  0  0  0  0  0
   -0.7500    1.2990    0.0000 C   0  0  0  0  0  0  0  0  0  0  0  0
   -1.5000    0.0000    0.0000 C   0  0  0  0  0  0  0  0  0  0  0  0
   -3.0000    0.0000    0.0000 C   0  0  0  0  0  0  0  0  0  0  0  0
   -3.8817   -1.2135    0.0000 N   0  0  0  0  0  0  0  0  0  0  0  0
   -5.3083   -0.7500    0.0000 N   0  0  0  0  0  0  0  0  0  0  0  0
   -5.3083    0.7500    0.0000 N   0  0  0  0  0  0  0  0  0  0  0  0
   -3.8817    1.2135    0.0000 N   0  0  0  0  0  0  0  0  0  0  0  0
   -3.4182    2.6401    0.0000 C   0  0  0  0  0  0  0  0  0  0  0  0
   -1.9509    2.9520    0.0000 C   0  0  0  0  0  0  0  0  0  0  0  0
   -1.4874    4.3786    0.0000 C   0  0  0  0  0  0  0  0  0  0  0  0
   -2.4911    5.4933    0.0000 C   0  0  0  0  0  0  0  0  0  0  0  0
   -2.0276    6.9199    0.0000 C   0  0  0  0  0  0  0  0  0  0  0  0
   -2.9093    8.1334    0.0000 N   0  0  0  0  0  0  0  0  0  0  0  0
   -2.0276    9.3469    0.0000 N   0  0  0  0  0  0  0  0  0  0  0  0
   -0.6010    8.8834    0.0000 N   0  0  0  0  0  0  0  0  0  0  0  0
   -0.6010    7.3834    0.0000 N   0  0  0  0  0  0  0  0  0  0  0  0
    0.6125    6.5017    0.0000 C   0  0  0  0  0  0  0  0  0  0  0  0
    0.4557    5.0099    0.0000 C   0  0  0  0  0  0  0  0  0  0  0  0
    1.6693    4.1283    0.0000 C   0  0  0  0  0  0  0  0  0  0  0  0
    3.0396    4.7384    0.0000 C   0  0  0  0  0  0  0  0  0  0  0  0
    3.1964    6.2301    0.0000 C   0  0  0  0  0  0  0  0  0  0  0  0
    1.9829    7.1118    0.0000 C   0  0  0  0  0  0  0  0  0  0  0  0
   -3.9583    5.1814    0.0000 C   0  0  0  0  0  0  0  0  0  0  0  0
   -4.4218    3.7548    0.0000 C   0  0  0  0  0  0  0  0  0  0  0  0
   -5.8891    3.4430    0.0000 C   0  0  0  0  0  0  0  0  0  0  0  0
   -6.8928    4.5577    0.0000 C   0  0  0  0  0  0  0  0  0  0  0  0
   -8.3600    4.2458    0.0000 C   0  0  0  0  0  0  0  0  0  0  0  0
   -8.8235    2.8192    0.0000 C   0  0  0  0  0  0  0  0  0  0  0  0
  -10.2907    2.5074    0.0000 C   0  0  0  0  0  0  0  0  0  0  0  0
  -10.9008    1.1370    0.0000 N   0  0  0  0  0  0  0  0  0  0  0  0
  -12.3926    1.2938    0.0000 N   0  0  0  0  0  0  0  0  0  0  0  0
  -12.7045    2.7611    0.0000 N   0  0  0  0  0  0  0  0  0  0  0  0
  -11.4055    3.5111    0.0000 N   0  0  0  0  0  0  0  0  0  0  0  0
  -11.2487    5.0028    0.0000 C   0  0  0  0  0  0  0  0  0  0  0  0
   -9.8783    5.6129    0.0000 C   0  0  0  0  0  0  0  0  0  0  0  0
   -9.7215    7.1047    0.0000 C   0  0  0  0  0  0  0  0  0  0  0  0
  -10.9351    7.9864    0.0000 C   0  0  0  0  0  0  0  0  0  0  0  0
  -12.3054    7.3763    0.0000 C   0  0  0  0  0  0  0  0  0  0  0  0
  -12.4622    5.8845    0.0000 C   0  0  0  0  0  0  0  0  0  0  0  0
   -7.8198    1.7045    0.0000 C   0  0  0  0  0  0  0  0  0  0  0  0
   -6.3526    2.0164    0.0000 C   0  0  0  0  0  0  0  0  0  0  0  0
   -0.7500   -1.2990    0.0000 C   0  0  0  0  0  0  0  0  0  0  0  0
   -1.5000   -2.5981    0.0000 O   0  0  0  0  0  0  0  0  0  0  0  0
    0.7500   -1.2990    0.0000 N   0  0  0  0  0  0  0  0  0  0  0  0
  1  2  1  0
  2  3  2  0
  3  4  1  0
  4  5  2  0
  5  6  1  0
  6  7  2  0
  7  8  1  0
  8  9  2  0
  9 10  1  0
 10 11  1  0
 11 12  2  0
 12 13  1  0
 13 14  2  0
 14 15  1  0
 15 16  2  0
 16 17  1  0
 17 18  2  0
 18 19  1  0
 19 20  1  0
 20 21  2  0
 21 22  1  0
 22 23  2  0
 23 24  1  0
 24 25  2  0
 14 26  1  0
 26 27  2  0
 27 28  1  0
 28 29  2  0
 29 30  1  0
 30 31  2  0
 31 32  1  0
 32 33  2  0
 33 34  1  0
 34 35  2  0
 35 36  1  0
 36 37  1  0
 37 38  2  0
 38 39  1  0
 39 40  2  0
 40 41  1  0
 41 42  2  0
 31 43  1  0
 43 44  1  0
  5 45  1  0
 45 46  2  0
 45 47  1  0
 47  2  1  0
 10  6  1  0
 27 11  1  0
 44 28  1  0
 19 15  1  0
 25 20  1  0
 36 32  1  0
 42 37  1  0
M  END
>  <Title>  (523) 
idAAUCgen8

$$$$

     RDKit          2D

 24 27  0  0  0  0  0  0  0  0999 V2000
    3.0000    0.0000    0.0000 C   0  0  0  0  0  0  0  0  0  0  0  0
    1.5000    0.0000    0.0000 C   0  0  0  0  0  0  0  0  0  0  0  0
    0.7500   -1.2990    0.0000 C   0  0  0  0  0  0  0  0  0  0  0  0
   -0.7500   -1.2990    0.0000 C   0  0  0  0  0  0  0  0  0  0  0  0
   -1.5000    0.0000    0.0000 C   0  0  0  0  0  0  0  0  0  0  0  0
   -3.0000    0.0000    0.0000 C   0  0  0  0  0  0  0  0  0  0  0  0
   -3.8817   -1.2135    0.0000 N   0  0  0  0  0  0  0  0  0  0  0  0
   -5.3083   -0.7500    0.0000 N   0  0  0  0  0  0  0  0  0  0  0  0
   -5.3083    0.7500    0.0000 N   0  0  0  0  0  0  0  0  0  0  0  0
   -3.8817    1.2135    0.0000 N   0  0  0  0  0  0  0  0  0  0  0  0
   -3.4182    2.6401    0.0000 C   0  0  0  0  0  0  0  0  0  0  0  0
   -1.9916    3.1036    0.0000 N   0  0  0  0  0  0  0  0  0  0  0  0
   -1.9916    4.6036    0.0000 N   0  0  0  0  0  0  0  0  0  0  0  0
   -3.4182    5.0672    0.0000 N   0  0  0  0  0  0  0  0  0  0  0  0
   -4.2998    3.8536    0.0000 N   0  0  0  0  0  0  0  0  0  0  0  0
   -5.7998    3.8536    0.0000 C   0  0  0  0  0  0  0  0  0  0  0  0
   -6.6815    2.6401    0.0000 C   0  0  0  0  0  0  0  0  0  0  0  0
   -8.1081    3.1036    0.0000 C   0  0  0  0  0  0  0  0  0  0  0  0
   -8.1081    4.6036    0.0000 C   0  0  0  0  0  0  0  0  0  0  0  0
   -9.3216    5.4853    0.0000 C   0  0  0  0  0  0  0  0  0  0  0  0
   -6.6815    5.0672    0.0000 C   0  0  0  0  0  0  0  0  0  0  0  0
   -6.2180    6.4937    0.0000 N   0  0  0  0  0  0  0  0  0  0  0  0
   -0.7500    1.2990    0.0000 C   0  0  0  0  0  0  0  0  0  0  0  0
    0.7500    1.2990    0.0000 C   0  0  0  0  0  0  0  0  0  0  0  0
  1  2  1  0
  2  3  2  0
  3  4  1  0
  4  5  2  0
  5  6  1  0
  6  7  2  0
  7  8  1  0
  8  9  2  0
  9 10  1  0
 10 11  1  0
 11 12  2  0
 12 13  1  0
 13 14  2  0
 14 15  1  0
 15 16  1  0
 16 17  2  0
 17 18  1  0
 18 19  2  0
 19 20  1  0
 19 21  1  0
 21 22  2  0
  5 23  1  0
 23 24  1  0
 24  2  1  0
 10  6  1  0
 15 11  1  0
 21 16  1  0
M  END
>  <Title>  (524) 
idAAUDgen8

$$$$

     RDKit          2D

 20 20  0  0  0  0  0  0  0  0999 V2000
    6.5691   -1.2990    0.0000 C   0  0  0  0  0  0  0  0  0  0  0  0
    5.8191    0.0000    0.0000 O   0  0  0  0  0  0  0  0  0  0  0  0
    4.3191    0.0000    0.0000 C   0  0  0  0  0  0  0  0  0  0  0  0
    4.0586   -1.4772    0.0000 C   0  0  0  0  0  0  0  0  0  0  0  0
    3.3086   -2.7762    0.0000 C   0  0  0  0  0  0  0  0  0  0  0  0
    2.1595   -3.7404    0.0000 C   0  0  0  0  0  0  0  0  0  0  0  0
    0.7500   -4.2535    0.0000 C   0  0  0  0  0  0  0  0  0  0  0  0
   -0.7500   -4.2535    0.0000 C   0  0  0  0  0  0  0  0  0  0  0  0
   -2.1595   -3.7404    0.0000 C   0  0  0  0  0  0  0  0  0  0  0  0
   -3.3086   -2.7762    0.0000 C   0  0  0  0  0  0  0  0  0  0  0  0
   -4.0586   -1.4772    0.0000 C   0  0  0  0  0  0  0  0  0  0  0  0
   -4.3191    0.0000    0.0000 C   0  0  0  0  0  0  0  0  0  0  0  0
   -4.0586    1.4772    0.0000 C   0  0  0  0  0  0  0  0  0  0  0  0
   -3.3086    2.7762    0.0000 C   0  0  0  0  0  0  0  0  0  0  0  0
   -2.1595    3.7404    0.0000 C   0  0  0  0  0  0  0  0  0  0  0  0
   -0.7500    4.2535    0.0000 C   0  0  0  0  0  0  0  0  0  0  0  0
    0.7500    4.2535    0.0000 C   0  0  0  0  0  0  0  0  0  0  0  0
    2.1595    3.7404    0.0000 O   0  0  0  0  0  0  0  0  0  0  0  0
    3.3086    2.7762    0.0000 C   0  0  0  0  0  0  0  0  0  0  0  0
    4.0586    1.4772    0.0000 C   0  0  0  0  0  0  0  0  0  0  0  0
  1  2  1  0
  2  3  1  0
  3  4  2  0
  4  5  1  0
  5  6  2  0
  6  7  1  0
  7  8  2  0
  8  9  1  0
  9 10  2  0
 10 11  1  0
 11 12  2  0
 12 13  1  0
 13 14  2  0
 14 15  1  0
 15 16  2  0
 16 17  1  0
 17 18  1  0
 18 19  1  0
 19 20  1  0
 20  3  1  0
M  END
>  <Title>  (525) 
idAAUEgen8

$$$$

     RDKit          2D

 14 14  0  0  0  0  0  0  0  0999 V2000
    5.1478   -1.2990    0.0000 C   0  0  0  0  0  0  0  0  0  0  0  0
    4.3978    0.0000    0.0000 O   0  0  0  0  0  0  0  0  0  0  0  0
    2.8978    0.0000    0.0000 C   0  0  0  0  0  0  0  0  0  0  0  0
    2.5095   -1.4489    0.0000 C   0  0  0  0  0  0  0  0  0  0  0  0
    1.4489   -2.5095    0.0000 C   0  0  0  0  0  0  0  0  0  0  0  0
   -0.0000   -2.8978    0.0000 C   0  0  0  0  0  0  0  0  0  0  0  0
   -1.4489   -2.5095    0.0000 C   0  0  0  0  0  0  0  0  0  0  0  0
   -2.5095   -1.4489    0.0000 C   0  0  0  0  0  0  0  0  0  0  0  0
   -2.8978    0.0000    0.0000 C   0  0  0  0  0  0  0  0  0  0  0  0
   -2.5095    1.4489    0.0000 C   0  0  0  0  0  0  0  0  0  0  0  0
   -1.4489    2.5095    0.0000 C   0  0  0  0  0  0  0  0  0  0  0  0
    0.0000    2.8978    0.0000 C   0  0  0  0  0  0  0  0  0  0  0  0
    1.4489    2.5095    0.0000 C   0  0  0  0  0  0  0  0  0  0  0  0
    2.5095    1.4489    0.0000 N   0  0  0  0  0  0  0  0  0  0  0  0
  1  2  1  0
  2  3  1  0
  3  4  2  0
  4  5  1  0
  5  6  2  0
  6  7  1  0
  7  8  2  0
  8  9  1  0
  9 10  2  0
 10 11  1  0
 11 12  2  0
 12 13  1  0
 13 14  1  0
 14  3  1  0
M  END
>  <Title>  (526) 
idAAUFgen8

$$$$

     RDKit          2D

 34 39  0  0  0  0  0  0  0  0999 V2000
  -10.1624    4.2767    0.0000 C   0  0  0  0  0  0  0  0  0  0  0  0
   -8.9488    3.3950    0.0000 C   0  0  0  0  0  0  0  0  0  0  0  0
   -9.1056    1.9033    0.0000 C   0  0  0  0  0  0  0  0  0  0  0  0
   -7.8921    1.0216    0.0000 C   0  0  0  0  0  0  0  0  0  0  0  0
   -6.5218    1.6317    0.0000 C   0  0  0  0  0  0  0  0  0  0  0  0
   -5.3083    0.7500    0.0000 C   0  0  0  0  0  0  0  0  0  0  0  0
   -5.3083   -0.7500    0.0000 N   0  0  0  0  0  0  0  0  0  0  0  0
   -3.8817   -1.2135    0.0000 N   0  0  0  0  0  0  0  0  0  0  0  0
   -3.0000    0.0000    0.0000 N   0  0  0  0  0  0  0  0  0  0  0  0
   -3.8817    1.2135    0.0000 N   0  0  0  0  0  0  0  0  0  0  0  0
   -3.4182    2.6401    0.0000 C   0  0  0  0  0  0  0  0  0  0  0  0
   -4.2998    3.8536    0.0000 C   0  0  0  0  0  0  0  0  0  0  0  0
   -3.4182    5.0672    0.0000 N   0  0  0  0  0  0  0  0  0  0  0  0
   -1.9916    4.6036    0.0000 N   0  0  0  0  0  0  0  0  0  0  0  0
   -1.9916    3.1036    0.0000 N   0  0  0  0  0  0  0  0  0  0  0  0
   -0.7780    2.2220    0.0000 C   0  0  0  0  0  0  0  0  0  0  0  0
    0.5923    2.8321    0.0000 C   0  0  0  0  0  0  0  0  0  0  0  0
    1.8058    1.9504    0.0000 C   0  0  0  0  0  0  0  0  0  0  0  0
    1.6490    0.4586    0.0000 C   0  0  0  0  0  0  0  0  0  0  0  0
    2.8625   -0.4231    0.0000 C   0  0  0  0  0  0  0  0  0  0  0  0
    2.8625   -1.9231    0.0000 N   0  0  0  0  0  0  0  0  0  0  0  0
    4.2891   -2.3866    0.0000 N   0  0  0  0  0  0  0  0  0  0  0  0
    5.1708   -1.1731    0.0000 N   0  0  0  0  0  0  0  0  0  0  0  0
    4.2891    0.0404    0.0000 N   0  0  0  0  0  0  0  0  0  0  0  0
    4.7526    1.4670    0.0000 C   0  0  0  0  0  0  0  0  0  0  0  0
    3.7489    2.5818    0.0000 C   0  0  0  0  0  0  0  0  0  0  0  0
    4.2125    4.0083    0.0000 C   0  0  0  0  0  0  0  0  0  0  0  0
    5.6797    4.3202    0.0000 C   0  0  0  0  0  0  0  0  0  0  0  0
    6.6834    3.2055    0.0000 C   0  0  0  0  0  0  0  0  0  0  0  0
    6.2199    1.7789    0.0000 C   0  0  0  0  0  0  0  0  0  0  0  0
    0.2787   -0.1515    0.0000 C   0  0  0  0  0  0  0  0  0  0  0  0
   -0.9348    0.7302    0.0000 C   0  0  0  0  0  0  0  0  0  0  0  0
   -6.3650    3.1235    0.0000 N   0  0  0  0  0  0  0  0  0  0  0  0
   -7.5785    4.0051    0.0000 C   0  0  0  0  0  0  0  0  0  0  0  0
  1  2  1  0
  2  3  2  0
  3  4  1  0
  4  5  2  0
  5  6  1  0
  6  7  2  0
  7  8  1  0
  8  9  2  0
  9 10  1  0
 10 11  1  0
 11 12  2  0
 12 13  1  0
 13 14  2  0
 14 15  1  0
 15 16  1  0
 16 17  2  0
 17 18  1  0
 18 19  2  0
 19 20  1  0
 20 21  2  0
 21 22  1  0
 22 23  2  0
 23 24  1  0
 24 25  1  0
 25 26  2  0
 26 27  1  0
 27 28  2  0
 28 29  1  0
 29 30  2  0
 19 31  1  0
 31 32  2  0
  5 33  1  0
 33 34  1  0
 34  2  1  0
 10  6  1  0
 15 11  1  0
 32 16  1  0
 24 20  1  0
 30 25  1  0
M  END
>  <Title>  (527) 
idAAUGgen8

$$$$

     RDKit          2D

 55 60  0  0  0  0  0  0  0  0999 V2000
    3.0000    0.0000    0.0000 C   0  0  0  0  0  0  0  0  0  0  0  0
    1.5000    0.0000    0.0000 C   0  0  0  0  0  0  0  0  0  0  0  0
    0.7500   -1.2990    0.0000 C   0  0  0  0  0  0  0  0  0  0  0  0
   -0.7500   -1.2990    0.0000 C   0  0  0  0  0  0  0  0  0  0  0  0
   -1.5000    0.0000    0.0000 C   0  0  0  0  0  0  0  0  0  0  0  0
   -3.0000    0.0000    0.0000 C   0  0  0  0  0  0  0  0  0  0  0  0
   -3.8817    1.2135    0.0000 N   0  0  0  0  0  0  0  0  0  0  0  0
   -5.3083    0.7500    0.0000 N   0  0  0  0  0  0  0  0  0  0  0  0
   -5.3083   -0.7500    0.0000 N   0  0  0  0  0  0  0  0  0  0  0  0
   -3.8817   -1.2135    0.0000 N   0  0  0  0  0  0  0  0  0  0  0  0
   -3.4182   -2.6401    0.0000 C   0  0  0  0  0  0  0  0  0  0  0  0
   -1.9509   -2.9520    0.0000 C   0  0  0  0  0  0  0  0  0  0  0  0
   -1.4874   -4.3786    0.0000 C   0  0  0  0  0  0  0  0  0  0  0  0
   -2.4911   -5.4933    0.0000 C   0  0  0  0  0  0  0  0  0  0  0  0
   -2.0276   -6.9199    0.0000 C   0  0  0  0  0  0  0  0  0  0  0  0
   -0.5604   -7.2317    0.0000 O   0  0  0  0  0  0  0  0  0  0  0  0
   -3.0313   -8.0346    0.0000 N   0  0  0  0  0  0  0  0  0  0  0  0
   -2.5677   -9.4612    0.0000 O   0  0  0  0  0  0  0  0  0  0  0  0
   -3.9583   -5.1814    0.0000 N   0  0  0  0  0  0  0  0  0  0  0  0
   -4.4218   -3.7548    0.0000 C   0  0  0  0  0  0  0  0  0  0  0  0
   -5.8891   -3.4430    0.0000 O   0  0  0  0  0  0  0  0  0  0  0  0
   -0.7500    1.2990    0.0000 N   0  0  0  0  0  0  0  0  0  0  0  0
   -2.0782    1.9961    0.0000 C   0  0  0  0  0  0  0  0  0  0  0  0
   -2.9303    3.2306    0.0000 C   0  0  0  0  0  0  0  0  0  0  0  0
   -4.3328    2.6987    0.0000 C   0  0  0  0  0  0  0  0  0  0  0  0
   -5.4947    3.6474    0.0000 O   0  0  0  0  0  0  0  0  0  0  0  0
   -3.1111    4.7197    0.0000 N   0  0  0  0  0  0  0  0  0  0  0  0
   -2.5792    6.1222    0.0000 C   0  0  0  0  0  0  0  0  0  0  0  0
   -3.8137    6.9743    0.0000 O   0  0  0  0  0  0  0  0  0  0  0  0
   -1.4564    7.1169    0.0000 N   0  0  0  0  0  0  0  0  0  0  0  0
    0.0000    7.4758    0.0000 C   0  0  0  0  0  0  0  0  0  0  0  0
    0.0000    8.9758    0.0000 O   0  0  0  0  0  0  0  0  0  0  0  0
    1.4564    7.1169    0.0000 N   0  0  0  0  0  0  0  0  0  0  0  0
    2.5792    6.1222    0.0000 C   0  0  0  0  0  0  0  0  0  0  0  0
    3.8137    6.9743    0.0000 O   0  0  0  0  0  0  0  0  0  0  0  0
    3.1111    4.7197    0.0000 N   0  0  0  0  0  0  0  0  0  0  0  0
    2.9303    3.2306    0.0000 C   0  0  0  0  0  0  0  0  0  0  0  0
    4.3328    2.6987    0.0000 C   0  0  0  0  0  0  0  0  0  0  0  0
    4.5734    1.2181    0.0000 O   0  0  0  0  0  0  0  0  0  0  0  0
    5.4947    3.6474    0.0000 N   0  0  0  0  0  0  0  0  0  0  0  0
    6.8972    3.1155    0.0000 C   0  0  0  0  0  0  0  0  0  0  0  0
    7.1379    1.6349    0.0000 O   0  0  0  0  0  0  0  0  0  0  0  0
    8.0591    4.0641    0.0000 C   0  0  0  0  0  0  0  0  0  0  0  0
    7.9746    5.5617    0.0000 N   0  0  0  0  0  0  0  0  0  0  0  0
    9.3728    6.1049    0.0000 N   0  0  0  0  0  0  0  0  0  0  0  0
   10.3215    4.9430    0.0000 N   0  0  0  0  0  0  0  0  0  0  0  0
    9.5096    3.6817    0.0000 N   0  0  0  0  0  0  0  0  0  0  0  0
   10.0528    2.2835    0.0000 C   0  0  0  0  0  0  0  0  0  0  0  0
    9.1135    1.1140    0.0000 C   0  0  0  0  0  0  0  0  0  0  0  0
    9.6567   -0.2842    0.0000 C   0  0  0  0  0  0  0  0  0  0  0  0
   11.1391   -0.5129    0.0000 C   0  0  0  0  0  0  0  0  0  0  0  0
   12.0784    0.6567    0.0000 C   0  0  0  0  0  0  0  0  0  0  0  0
   11.5352    2.0549    0.0000 C   0  0  0  0  0  0  0  0  0  0  0  0
    2.0782    1.9961    0.0000 C   0  0  0  0  0  0  0  0  0  0  0  0
    0.7500    1.2990    0.0000 C   0  0  0  0  0  0  0  0  0  0  0  0
  1  2  1  0
  2  3  2  0
  3  4  1  0
  4  5  2  0
  5  6  1  0
  6  7  2  0
  7  8  1  0
  8  9  2  0
  9 10  1  0
 10 11  1  0
 11 12  2  0
 12 13  1  0
 13 14  2  0
 14 15  1  0
 15 16  2  0
 15 17  1  0
 17 18  1  0
 14 19  1  0
 19 20  1  0
 20 21  2  0
  5 22  1  0
 22 23  1  0
 23 24  1  0
 24 25  1  0
 25 26  1  0
 24 27  1  0
 27 28  1  0
 28 29  2  0
 28 30  1  0
 30 31  1  0
 31 32  2  0
 31 33  1  0
 33 34  1  0
 34 35  2  0
 34 36  1  0
 36 37  1  0
 37 38  1  0
 38 39  2  0
 38 40  1  0
 40 41  1  0
 41 42  2  0
 41 43  1  0
 43 44  2  0
 44 45  1  0
 45 46  2  0
 46 47  1  0
 47 48  1  0
 48 49  2  0
 49 50  1  0
 50 51  2  0
 51 52  1  0
 52 53  2  0
 37 54  1  0
 54 55  2  0
 55  2  1  0
 10  6  1  0
 20 11  1  0
 55 22  1  0
 47 43  1  0
 53 48  1  0
M  END
>  <Title>  (528) 
idAAUHgen8

$$$$

     RDKit          2D

 41 41  0  0  0  0  0  0  0  0999 V2000
   11.5706   -1.2990    0.0000 C   0  0  0  0  0  0  0  0  0  0  0  0
   10.8206    0.0000    0.0000 O   0  0  0  0  0  0  0  0  0  0  0  0
    9.3206    0.0000    0.0000 C   0  0  0  0  0  0  0  0  0  0  0  0
    9.1999    1.4951    0.0000 C   0  0  0  0  0  0  0  0  0  0  0  0
    8.8410    2.9515    0.0000 C   0  0  0  0  0  0  0  0  0  0  0  0
    8.2530    4.3315    0.0000 C   0  0  0  0  0  0  0  0  0  0  0  0
    7.4513    5.5993    0.0000 C   0  0  0  0  0  0  0  0  0  0  0  0
    6.4566    6.7221    0.0000 C   0  0  0  0  0  0  0  0  0  0  0  0
    5.2947    7.6707    0.0000 C   0  0  0  0  0  0  0  0  0  0  0  0
    3.9957    8.4207    0.0000 C   0  0  0  0  0  0  0  0  0  0  0  0
    2.5932    8.9526    0.0000 C   0  0  0  0  0  0  0  0  0  0  0  0
    1.1235    9.2527    0.0000 C   0  0  0  0  0  0  0  0  0  0  0  0
   -0.3753    9.3131    0.0000 C   0  0  0  0  0  0  0  0  0  0  0  0
   -1.8644    9.1323    0.0000 C   0  0  0  0  0  0  0  0  0  0  0  0
   -3.3051    8.7150    0.0000 C   0  0  0  0  0  0  0  0  0  0  0  0
   -4.6603    8.0719    0.0000 C   0  0  0  0  0  0  0  0  0  0  0  0
   -5.8948    7.2198    0.0000 C   0  0  0  0  0  0  0  0  0  0  0  0
   -6.9766    6.1807    0.0000 C   0  0  0  0  0  0  0  0  0  0  0  0
   -7.8777    4.9816    0.0000 C   0  0  0  0  0  0  0  0  0  0  0  0
   -8.5748    3.6534    0.0000 C   0  0  0  0  0  0  0  0  0  0  0  0
   -9.0498    2.2306    0.0000 C   0  0  0  0  0  0  0  0  0  0  0  0
   -9.2904    0.7500    0.0000 C   0  0  0  0  0  0  0  0  0  0  0  0
   -9.2904   -0.7500    0.0000 C   0  0  0  0  0  0  0  0  0  0  0  0
   -9.0498   -2.2306    0.0000 C   0  0  0  0  0  0  0  0  0  0  0  0
   -8.5748   -3.6534    0.0000 C   0  0  0  0  0  0  0  0  0  0  0  0
   -7.8777   -4.9816    0.0000 C   0  0  0  0  0  0  0  0  0  0  0  0
   -6.9766   -6.1807    0.0000 C   0  0  0  0  0  0  0  0  0  0  0  0
   -5.8948   -7.2198    0.0000 O   0  0  0  0  0  0  0  0  0  0  0  0
   -4.6603   -8.0719    0.0000 C   0  0  0  0  0  0  0  0  0  0  0  0
   -3.3051   -8.7150    0.0000 C   0  0  0  0  0  0  0  0  0  0  0  0
   -1.8644   -9.1323    0.0000 C   0  0  0  0  0  0  0  0  0  0  0  0
   -0.3753   -9.3131    0.0000 C   0  0  0  0  0  0  0  0  0  0  0  0
    1.1235   -9.2527    0.0000 C   0  0  0  0  0  0  0  0  0  0  0  0
    2.5932   -8.9526    0.0000 C   0  0  0  0  0  0  0  0  0  0  0  0
    3.9957   -8.4207    0.0000 C   0  0  0  0  0  0  0  0  0  0  0  0
    5.2947   -7.6707    0.0000 C   0  0  0  0  0  0  0  0  0  0  0  0
    6.4566   -6.7221    0.0000 C   0  0  0  0  0  0  0  0  0  0  0  0
    7.4513   -5.5993    0.0000 C   0  0  0  0  0  0  0  0  0  0  0  0
    8.2530   -4.3315    0.0000 C   0  0  0  0  0  0  0  0  0  0  0  0
    8.8410   -2.9515    0.0000 C   0  0  0  0  0  0  0  0  0  0  0  0
    9.1999   -1.4951    0.0000 C   0  0  0  0  0  0  0  0  0  0  0  0
  1  2  1  0
  2  3  1  0
  3  4  2  0
  4  5  1  0
  5  6  2  0
  6  7  1  0
  7  8  2  0
  8  9  1  0
  9 10  2  0
 10 11  1  0
 11 12  2  0
 12 13  1  0
 13 14  2  0
 14 15  1  0
 15 16  2  0
 16 17  1  0
 17 18  2  0
 18 19  1  0
 19 20  2  0
 20 21  1  0
 21 22  2  0
 22 23  1  0
 23 24  2  0
 24 25  1  0
 25 26  2  0
 26 27  1  0
 27 28  1  0
 28 29  1  0
 29 30  1  0
 30 31  2  0
 31 32  1  0
 32 33  2  0
 33 34  1  0
 34 35  2  0
 35 36  1  0
 36 37  2  0
 37 38  1  0
 38 39  2  0
 39 40  1  0
 40 41  2  0
 41  3  1  0
M  END
>  <Title>  (529) 
idAAUIgen8

$$$$

     RDKit          2D

  8  8  0  0  0  0  0  0  0  0999 V2000
    3.2286   -0.0000    0.0000 O   0  0  0  0  0  0  0  0  0  0  0  0
    1.7286    0.0000    0.0000 C   0  0  0  0  0  0  0  0  0  0  0  0
    1.0777    1.3515    0.0000 C   0  0  0  0  0  0  0  0  0  0  0  0
   -0.3846    1.6852    0.0000 C   0  0  0  0  0  0  0  0  0  0  0  0
   -1.5574    0.7500    0.0000 C   0  0  0  0  0  0  0  0  0  0  0  0
   -1.5574   -0.7500    0.0000 C   0  0  0  0  0  0  0  0  0  0  0  0
   -0.3846   -1.6852    0.0000 C   0  0  0  0  0  0  0  0  0  0  0  0
    1.0777   -1.3515    0.0000 C   0  0  0  0  0  0  0  0  0  0  0  0
  1  2  1  0
  2  3  1  0
  3  4  1  0
  4  5  1  0
  5  6  1  0
  6  7  1  0
  7  8  1  0
  8  2  1  0
M  END
>  <Title>  (530) 
idAAUJgen8

$$$$

     RDKit          2D

 51 58  0  0  0  0  0  0  0  0999 V2000
    3.0000    0.0000    0.0000 C   0  0  0  0  0  0  0  0  0  0  0  0
    1.5000    0.0000    0.0000 C   0  0  0  0  0  0  0  0  0  0  0  0
    0.7500    1.2990    0.0000 C   0  0  0  0  0  0  0  0  0  0  0  0
   -0.7500    1.2990    0.0000 C   0  0  0  0  0  0  0  0  0  0  0  0
   -1.5000    0.0000    0.0000 C   0  0  0  0  0  0  0  0  0  0  0  0
   -3.0000    0.0000    0.0000 C   0  0  0  0  0  0  0  0  0  0  0  0
   -3.8817   -1.2135    0.0000 N   0  0  0  0  0  0  0  0  0  0  0  0
   -5.3083   -0.7500    0.0000 N   0  0  0  0  0  0  0  0  0  0  0  0
   -5.3083    0.7500    0.0000 N   0  0  0  0  0  0  0  0  0  0  0  0
   -3.8817    1.2135    0.0000 N   0  0  0  0  0  0  0  0  0  0  0  0
   -3.4182    2.6401    0.0000 C   0  0  0  0  0  0  0  0  0  0  0  0
   -1.9509    2.9520    0.0000 C   0  0  0  0  0  0  0  0  0  0  0  0
   -1.4874    4.3786    0.0000 C   0  0  0  0  0  0  0  0  0  0  0  0
   -2.4911    5.4933    0.0000 C   0  0  0  0  0  0  0  0  0  0  0  0
   -2.0276    6.9199    0.0000 C   0  0  0  0  0  0  0  0  0  0  0  0
   -3.0313    8.0346    0.0000 O   0  0  0  0  0  0  0  0  0  0  0  0
   -0.5604    7.2317    0.0000 N   0  0  0  0  0  0  0  0  0  0  0  0
   -0.0968    8.6583    0.0000 C   0  0  0  0  0  0  0  0  0  0  0  0
   -0.9785    9.8718    0.0000 N   0  0  0  0  0  0  0  0  0  0  0  0
   -0.0968   11.0854    0.0000 N   0  0  0  0  0  0  0  0  0  0  0  0
    1.3298   10.6218    0.0000 N   0  0  0  0  0  0  0  0  0  0  0  0
    1.3298    9.1218    0.0000 N   0  0  0  0  0  0  0  0  0  0  0  0
    2.5433    8.2402    0.0000 C   0  0  0  0  0  0  0  0  0  0  0  0
    2.3865    6.7484    0.0000 C   0  0  0  0  0  0  0  0  0  0  0  0
    3.6000    5.8667    0.0000 C   0  0  0  0  0  0  0  0  0  0  0  0
    4.9703    6.4768    0.0000 C   0  0  0  0  0  0  0  0  0  0  0  0
    5.1271    7.9686    0.0000 C   0  0  0  0  0  0  0  0  0  0  0  0
    3.9136    8.8503    0.0000 C   0  0  0  0  0  0  0  0  0  0  0  0
   -3.9583    5.1814    0.0000 C   0  0  0  0  0  0  0  0  0  0  0  0
   -4.4218    3.7548    0.0000 C   0  0  0  0  0  0  0  0  0  0  0  0
   -5.8891    3.4430    0.0000 C   0  0  0  0  0  0  0  0  0  0  0  0
   -6.8928    4.5577    0.0000 C   0  0  0  0  0  0  0  0  0  0  0  0
   -8.3600    4.2458    0.0000 C   0  0  0  0  0  0  0  0  0  0  0  0
   -8.8235    2.8192    0.0000 C   0  0  0  0  0  0  0  0  0  0  0  0
  -10.2907    2.5074    0.0000 C   0  0  0  0  0  0  0  0  0  0  0  0
  -11.2944    3.6221    0.0000 C   0  0  0  0  0  0  0  0  0  0  0  0
  -12.7617    3.3102    0.0000 C   0  0  0  0  0  0  0  0  0  0  0  0
  -13.2252    1.8836    0.0000 C   0  0  0  0  0  0  0  0  0  0  0  0
  -12.2215    0.7689    0.0000 N   0  0  0  0  0  0  0  0  0  0  0  0
  -10.7543    1.0808    0.0000 C   0  0  0  0  0  0  0  0  0  0  0  0
   -9.7506   -0.0339    0.0000 C   0  0  0  0  0  0  0  0  0  0  0  0
  -10.2141   -1.4605    0.0000 C   0  0  0  0  0  0  0  0  0  0  0  0
   -9.2104   -2.5752    0.0000 C   0  0  0  0  0  0  0  0  0  0  0  0
   -7.7432   -2.2634    0.0000 C   0  0  0  0  0  0  0  0  0  0  0  0
   -7.2796   -0.8368    0.0000 C   0  0  0  0  0  0  0  0  0  0  0  0
   -8.2833    0.2779    0.0000 C   0  0  0  0  0  0  0  0  0  0  0  0
   -7.8198    1.7045    0.0000 C   0  0  0  0  0  0  0  0  0  0  0  0
   -6.3526    2.0164    0.0000 C   0  0  0  0  0  0  0  0  0  0  0  0
   -0.7500   -1.2990    0.0000 C   0  0  0  0  0  0  0  0  0  0  0  0
   -1.5000   -2.5981    0.0000 O   0  0  0  0  0  0  0  0  0  0  0  0
    0.7500   -1.2990    0.0000 N   0  0  0  0  0  0  0  0  0  0  0  0
  1  2  1  0
  2  3  2  0
  3  4  1  0
  4  5  2  0
  5  6  1  0
  6  7  2  0
  7  8  1  0
  8  9  2  0
  9 10  1  0
 10 11  1  0
 11 12  2  0
 12 13  1  0
 13 14  2  0
 14 15  1  0
 15 16  2  0
 15 17  1  0
 17 18  1  0
 18 19  2  0
 19 20  1  0
 20 21  2  0
 21 22  1  0
 22 23  1  0
 23 24  2  0
 24 25  1  0
 25 26  2  0
 26 27  1  0
 27 28  2  0
 14 29  1  0
 29 30  2  0
 30 31  1  0
 31 32  2  0
 32 33  1  0
 33 34  2  0
 34 35  1  0
 35 36  2  0
 36 37  1  0
 37 38  2  0
 38 39  1  0
 39 40  2  0
 40 41  1  0
 41 42  2  0
 42 43  1  0
 43 44  2  0
 44 45  1  0
 45 46  2  0
 34 47  1  0
 47 48  2  0
  5 49  1  0
 49 50  2  0
 49 51  1  0
 51  2  1  0
 10  6  1  0
 30 11  1  0
 48 31  1  0
 22 18  1  0
 28 23  1  0
 40 35  1  0
 46 41  1  0
M  END
>  <Title>  (531) 
idAAUKgen8

$$$$

     RDKit          2D

  8  8  0  0  0  0  0  0  0  0999 V2000
    3.7500   -1.2990    0.0000 C   0  0  0  0  0  0  0  0  0  0  0  0
    3.0000    0.0000    0.0000 C   0  0  0  0  0  0  0  0  0  0  0  0
    1.5000    0.0000    0.0000 C   0  0  0  0  0  0  0  0  0  0  0  0
    0.7500   -1.2990    0.0000 C   0  0  0  0  0  0  0  0  0  0  0  0
   -0.7500   -1.2990    0.0000 C   0  0  0  0  0  0  0  0  0  0  0  0
   -1.5000    0.0000    0.0000 C   0  0  0  0  0  0  0  0  0  0  0  0
   -0.7500    1.2990    0.0000 C   0  0  0  0  0  0  0  0  0  0  0  0
    0.7500    1.2990    0.0000 C   0  0  0  0  0  0  0  0  0  0  0  0
  1  2  1  0
  2  3  1  0
  3  4  2  0
  4  5  1  0
  5  6  2  0
  6  7  1  0
  7  8  2  0
  8  3  1  0
M  END
>  <Title>  (532) 
idAAULgen8

$$$$

     RDKit          2D

 19 19  0  0  0  0  0  0  0  0999 V2000
    6.3316   -1.2990    0.0000 C   0  0  0  0  0  0  0  0  0  0  0  0
    5.5816    0.0000    0.0000 O   0  0  0  0  0  0  0  0  0  0  0  0
    4.0816    0.0000    0.0000 C   0  0  0  0  0  0  0  0  0  0  0  0
    3.8060    1.4745    0.0000 C   0  0  0  0  0  0  0  0  0  0  0  0
    3.0164    2.7498    0.0000 C   0  0  0  0  0  0  0  0  0  0  0  0
    1.8193    3.6537    0.0000 C   0  0  0  0  0  0  0  0  0  0  0  0
    0.3766    4.0642    0.0000 C   0  0  0  0  0  0  0  0  0  0  0  0
   -1.1170    3.9258    0.0000 C   0  0  0  0  0  0  0  0  0  0  0  0
   -2.4597    3.2572    0.0000 C   0  0  0  0  0  0  0  0  0  0  0  0
   -3.4703    2.1487    0.0000 C   0  0  0  0  0  0  0  0  0  0  0  0
   -4.0121    0.7500    0.0000 C   0  0  0  0  0  0  0  0  0  0  0  0
   -4.0121   -0.7500    0.0000 C   0  0  0  0  0  0  0  0  0  0  0  0
   -3.4703   -2.1487    0.0000 C   0  0  0  0  0  0  0  0  0  0  0  0
   -2.4597   -3.2572    0.0000 C   0  0  0  0  0  0  0  0  0  0  0  0
   -1.1170   -3.9258    0.0000 C   0  0  0  0  0  0  0  0  0  0  0  0
    0.3766   -4.0642    0.0000 C   0  0  0  0  0  0  0  0  0  0  0  0
    1.8193   -3.6537    0.0000 C   0  0  0  0  0  0  0  0  0  0  0  0
    3.0164   -2.7498    0.0000 C   0  0  0  0  0  0  0  0  0  0  0  0
    3.8060   -1.4745    0.0000 C   0  0  0  0  0  0  0  0  0  0  0  0
  1  2  1  0
  2  3  1  0
  3  4  2  0
  4  5  1  0
  5  6  2  0
  6  7  2  0
  7  8  1  0
  8  9  2  0
  9 10  1  0
 10 11  2  0
 11 12  1  0
 12 13  2  0
 13 14  1  0
 14 15  2  0
 15 16  1  0
 16 17  2  0
 17 18  1  0
 18 19  2  0
 19  3  1  0
M  END
>  <Title>  (533) 
idAAUMgen8

$$$$

     RDKit          2D

 39 44  0  0  0  0  0  0  0  0999 V2000
    3.0000    0.0000    0.0000 C   0  0  0  0  0  0  0  0  0  0  0  0
    1.5000    0.0000    0.0000 C   0  0  0  0  0  0  0  0  0  0  0  0
    0.7500   -1.2990    0.0000 C   0  0  0  0  0  0  0  0  0  0  0  0
   -0.7500   -1.2990    0.0000 C   0  0  0  0  0  0  0  0  0  0  0  0
   -1.5000    0.0000    0.0000 C   0  0  0  0  0  0  0  0  0  0  0  0
   -3.0000    0.0000    0.0000 C   0  0  0  0  0  0  0  0  0  0  0  0
   -3.7500   -1.2990    0.0000 O   0  0  0  0  0  0  0  0  0  0  0  0
   -3.7500    1.2990    0.0000 N   0  0  0  0  0  0  0  0  0  0  0  0
   -5.2500    1.2990    0.0000 C   0  0  0  0  0  0  0  0  0  0  0  0
   -6.1317    0.0855    0.0000 N   0  0  0  0  0  0  0  0  0  0  0  0
   -7.5583    0.5490    0.0000 N   0  0  0  0  0  0  0  0  0  0  0  0
   -7.5583    2.0490    0.0000 N   0  0  0  0  0  0  0  0  0  0  0  0
   -6.1317    2.5126    0.0000 N   0  0  0  0  0  0  0  0  0  0  0  0
   -5.6682    3.9391    0.0000 C   0  0  0  0  0  0  0  0  0  0  0  0
   -6.5498    5.1527    0.0000 C   0  0  0  0  0  0  0  0  0  0  0  0
   -5.6682    6.3662    0.0000 C   0  0  0  0  0  0  0  0  0  0  0  0
   -4.2416    5.9027    0.0000 C   0  0  0  0  0  0  0  0  0  0  0  0
   -3.0280    6.7844    0.0000 C   0  0  0  0  0  0  0  0  0  0  0  0
   -1.6015    6.3208    0.0000 N   0  0  0  0  0  0  0  0  0  0  0  0
   -0.7198    7.5344    0.0000 N   0  0  0  0  0  0  0  0  0  0  0  0
   -1.6015    8.7479    0.0000 N   0  0  0  0  0  0  0  0  0  0  0  0
   -3.0280    8.2844    0.0000 N   0  0  0  0  0  0  0  0  0  0  0  0
   -4.2416    9.1660    0.0000 C   0  0  0  0  0  0  0  0  0  0  0  0
   -5.6119    8.5559    0.0000 C   0  0  0  0  0  0  0  0  0  0  0  0
   -6.8254    9.4376    0.0000 C   0  0  0  0  0  0  0  0  0  0  0  0
   -6.6686   10.9294    0.0000 C   0  0  0  0  0  0  0  0  0  0  0  0
   -7.8821   11.8111    0.0000 C   0  0  0  0  0  0  0  0  0  0  0  0
   -7.7254   13.3028    0.0000 C   0  0  0  0  0  0  0  0  0  0  0  0
   -8.9389   14.1845    0.0000 C   0  0  0  0  0  0  0  0  0  0  0  0
  -10.3092   13.5744    0.0000 C   0  0  0  0  0  0  0  0  0  0  0  0
  -10.4660   12.0826    0.0000 C   0  0  0  0  0  0  0  0  0  0  0  0
   -9.2525   11.2010    0.0000 C   0  0  0  0  0  0  0  0  0  0  0  0
   -5.2983   11.5395    0.0000 C   0  0  0  0  0  0  0  0  0  0  0  0
   -4.0848   10.6578    0.0000 C   0  0  0  0  0  0  0  0  0  0  0  0
   -4.2416    4.4027    0.0000 C   0  0  0  0  0  0  0  0  0  0  0  0
   -3.0280    3.5210    0.0000 O   0  0  0  0  0  0  0  0  0  0  0  0
   -0.7500    1.2990    0.0000 N   0  0  0  0  0  0  0  0  0  0  0  0
    0.7500    1.2990    0.0000 C   0  0  0  0  0  0  0  0  0  0  0  0
    1.5000    2.5981    0.0000 O   0  0  0  0  0  0  0  0  0  0  0  0
  1  2  1  0
  2  3  2  0
  3  4  1  0
  4  5  2  0
  5  6  1  0
  6  7  2  0
  6  8  1  0
  8  9  1  0
  9 10  2  0
 10 11  1  0
 11 12  2  0
 12 13  1  0
 13 14  1  0
 14 15  2  0
 15 16  1  0
 16 17  2  0
 17 18  1  0
 18 19  2  0
 19 20  1  0
 20 21  2  0
 21 22  1  0
 22 23  1  0
 23 24  2  0
 24 25  1  0
 25 26  2  0
 26 27  1  0
 27 28  2  0
 28 29  1  0
 29 30  2  0
 30 31  1  0
 31 32  2  0
 26 33  1  0
 33 34  2  0
 17 35  1  0
 35 36  2  0
  5 37  1  0
 37 38  1  0
 38 39  2  0
 38  2  1  0
 13  9  1  0
 35 14  1  0
 22 18  1  0
 34 23  1  0
 32 27  1  0
M  END
>  <Title>  (534) 
idAAUNgen8

$$$$

     RDKit          2D

 61 70  0  0  0  0  0  0  0  0999 V2000
   -0.1074  -15.3878    0.0000 C   0  0  0  0  0  0  0  0  0  0  0  0
   -1.2044  -14.3648    0.0000 C   0  0  0  0  0  0  0  0  0  0  0  0
   -2.6389  -14.8034    0.0000 C   0  0  0  0  0  0  0  0  0  0  0  0
   -3.7359  -13.7804    0.0000 C   0  0  0  0  0  0  0  0  0  0  0  0
   -3.3985  -12.3188    0.0000 C   0  0  0  0  0  0  0  0  0  0  0  0
   -4.4955  -11.2958    0.0000 C   0  0  0  0  0  0  0  0  0  0  0  0
   -5.9680  -11.5821    0.0000 N   0  0  0  0  0  0  0  0  0  0  0  0
   -6.6952  -10.2701    0.0000 N   0  0  0  0  0  0  0  0  0  0  0  0
   -5.6722   -9.1731    0.0000 N   0  0  0  0  0  0  0  0  0  0  0  0
   -4.3127   -9.8070    0.0000 N   0  0  0  0  0  0  0  0  0  0  0  0
   -3.0008   -9.0798    0.0000 C   0  0  0  0  0  0  0  0  0  0  0  0
   -1.7150   -9.8524    0.0000 C   0  0  0  0  0  0  0  0  0  0  0  0
   -0.4031   -9.1252    0.0000 C   0  0  0  0  0  0  0  0  0  0  0  0
   -0.3769   -7.6254    0.0000 C   0  0  0  0  0  0  0  0  0  0  0  0
    0.9350   -6.8982    0.0000 C   0  0  0  0  0  0  0  0  0  0  0  0
    1.1178   -5.4093    0.0000 N   0  0  0  0  0  0  0  0  0  0  0  0
    2.5902   -5.1231    0.0000 N   0  0  0  0  0  0  0  0  0  0  0  0
    3.3174   -6.4351    0.0000 N   0  0  0  0  0  0  0  0  0  0  0  0
    2.2945   -7.5321    0.0000 N   0  0  0  0  0  0  0  0  0  0  0  0
    2.5807   -9.0045    0.0000 C   0  0  0  0  0  0  0  0  0  0  0  0
    1.4486   -9.9886    0.0000 C   0  0  0  0  0  0  0  0  0  0  0  0
    1.7348  -11.4611    0.0000 C   0  0  0  0  0  0  0  0  0  0  0  0
    3.1531  -11.9494    0.0000 C   0  0  0  0  0  0  0  0  0  0  0  0
    3.4393  -13.4219    0.0000 C   0  0  0  0  0  0  0  0  0  0  0  0
    4.8576  -13.9102    0.0000 O   0  0  0  0  0  0  0  0  0  0  0  0
    2.3072  -14.4059    0.0000 N   0  0  0  0  0  0  0  0  0  0  0  0
    2.5935  -15.8784    0.0000 O   0  0  0  0  0  0  0  0  0  0  0  0
    4.2852  -10.9653    0.0000 C   0  0  0  0  0  0  0  0  0  0  0  0
    3.9989   -9.4929    0.0000 C   0  0  0  0  0  0  0  0  0  0  0  0
   -1.6627   -6.8528    0.0000 N   0  0  0  0  0  0  0  0  0  0  0  0
   -2.9746   -7.5800    0.0000 C   0  0  0  0  0  0  0  0  0  0  0  0
   -4.2604   -6.8075    0.0000 C   0  0  0  0  0  0  0  0  0  0  0  0
   -5.6411   -7.3936    0.0000 C   0  0  0  0  0  0  0  0  0  0  0  0
   -6.6252   -6.2615    0.0000 C   0  0  0  0  0  0  0  0  0  0  0  0
   -5.8527   -4.9758    0.0000 C   0  0  0  0  0  0  0  0  0  0  0  0
   -6.4388   -3.5950    0.0000 C   0  0  0  0  0  0  0  0  0  0  0  0
   -7.9003   -3.2576    0.0000 N   0  0  0  0  0  0  0  0  0  0  0  0
   -8.0310   -1.7633    0.0000 N   0  0  0  0  0  0  0  0  0  0  0  0
   -6.6503   -1.1772    0.0000 N   0  0  0  0  0  0  0  0  0  0  0  0
   -5.6662   -2.3093    0.0000 N   0  0  0  0  0  0  0  0  0  0  0  0
   -4.1719   -2.1785    0.0000 C   0  0  0  0  0  0  0  0  0  0  0  0
   -3.5380   -3.5380    0.0000 C   0  0  0  0  0  0  0  0  0  0  0  0
   -2.1785   -4.1719    0.0000 C   0  0  0  0  0  0  0  0  0  0  0  0
   -0.7296   -3.7837    0.0000 C   0  0  0  0  0  0  0  0  0  0  0  0
    0.1307   -2.5550    0.0000 C   0  0  0  0  0  0  0  0  0  0  0  0
    0.0000   -1.0607    0.0000 N   0  0  0  0  0  0  0  0  0  0  0  0
   -1.0607   -0.0000    0.0000 N   0  0  0  0  0  0  0  0  0  0  0  0
   -2.5550    0.1307    0.0000 N   0  0  0  0  0  0  0  0  0  0  0  0
   -3.7837   -0.7296    0.0000 N   0  0  0  0  0  0  0  0  0  0  0  0
   -5.0124    0.1307    0.0000 C   0  0  0  0  0  0  0  0  0  0  0  0
   -5.0386    1.6305    0.0000 N   0  0  0  0  0  0  0  0  0  0  0  0
   -6.4730    2.0691    0.0000 N   0  0  0  0  0  0  0  0  0  0  0  0
   -7.3334    0.8403    0.0000 N   0  0  0  0  0  0  0  0  0  0  0  0
   -6.4307   -0.3576    0.0000 N   0  0  0  0  0  0  0  0  0  0  0  0
    1.3595   -3.4153    0.0000 C   0  0  0  0  0  0  0  0  0  0  0  0
    0.4991   -4.6440    0.0000 C   0  0  0  0  0  0  0  0  0  0  0  0
   -4.3911   -5.3132    0.0000 C   0  0  0  0  0  0  0  0  0  0  0  0
   -3.2590   -4.3291    0.0000 O   0  0  0  0  0  0  0  0  0  0  0  0
   -1.9640  -11.8803    0.0000 C   0  0  0  0  0  0  0  0  0  0  0  0
   -1.2830  -10.5438    0.0000 O   0  0  0  0  0  0  0  0  0  0  0  0
   -0.8670  -12.9033    0.0000 N   0  0  0  0  0  0  0  0  0  0  0  0
  1  2  1  0
  2  3  2  0
  3  4  1  0
  4  5  2  0
  5  6  1  0
  6  7  2  0
  7  8  1  0
  8  9  2  0
  9 10  1  0
 10 11  1  0
 11 12  2  0
 12 13  1  0
 13 14  2  0
 14 15  1  0
 15 16  2  0
 16 17  1  0
 17 18  2  0
 18 19  1  0
 19 20  1  0
 20 21  2  0
 21 22  1  0
 22 23  2  0
 23 24  1  0
 24 25  2  0
 24 26  1  0
 26 27  1  0
 23 28  1  0
 28 29  1  0
 14 30  1  0
 30 31  2  0
 31 32  1  0
 32 33  2  0
 33 34  1  0
 34 35  2  0
 35 36  1  0
 36 37  2  0
 37 38  1  0
 38 39  2  0
 39 40  1  0
 40 41  1  0
 41 42  2  0
 42 43  1  0
 43 44  2  0
 44 45  1  0
 45 46  2  0
 46 47  1  0
 47 48  2  0
 48 49  1  0
 49 50  1  0
 50 51  2  0
 51 52  1  0
 52 53  2  0
 53 54  1  0
 45 55  1  0
 55 56  1  0
 35 57  1  0
 57 58  2  0
  5 59  1  0
 59 60  2  0
 59 61  1  0
 61  2  1  0
 10  6  1  0
 31 11  1  0
 57 32  1  0
 19 15  1  0
 29 20  1  0
 40 36  1  0
 49 41  1  0
 54 50  1  0
 56 44  1  0
M  END
>  <Title>  (535) 
idAAUOgen8

$$$$

     RDKit          2D

  6  6  0  0  0  0  0  0  0  0999 V2000
    2.7760    0.0000    0.0000 C   0  0  0  0  0  0  0  0  0  0  0  0
    1.2760    0.0000    0.0000 C   0  0  0  0  0  0  0  0  0  0  0  0
    0.3943    1.2135    0.0000 C   0  0  0  0  0  0  0  0  0  0  0  0
   -1.0323    0.7500    0.0000 C   0  0  0  0  0  0  0  0  0  0  0  0
   -1.0323   -0.7500    0.0000 C   0  0  0  0  0  0  0  0  0  0  0  0
    0.3943   -1.2135    0.0000 C   0  0  0  0  0  0  0  0  0  0  0  0
  1  2  1  0
  2  3  2  0
  3  4  1  0
  4  5  2  0
  5  6  1  0
  6  2  1  0
M  END
>  <Title>  (536) 
idAAUPgen8

$$$$

     RDKit          2D

 27 29  0  0  0  0  0  0  0  0999 V2000
    3.0000    0.0000    0.0000 C   0  0  0  0  0  0  0  0  0  0  0  0
    1.5000    0.0000    0.0000 C   0  0  0  0  0  0  0  0  0  0  0  0
    0.7500   -1.2990    0.0000 C   0  0  0  0  0  0  0  0  0  0  0  0
   -0.7500   -1.2990    0.0000 C   0  0  0  0  0  0  0  0  0  0  0  0
   -1.5000    0.0000    0.0000 C   0  0  0  0  0  0  0  0  0  0  0  0
   -3.0000    0.0000    0.0000 C   0  0  0  0  0  0  0  0  0  0  0  0
   -3.7500   -1.2990    0.0000 O   0  0  0  0  0  0  0  0  0  0  0  0
   -3.7500    1.2990    0.0000 N   0  0  0  0  0  0  0  0  0  0  0  0
   -5.2500    1.2990    0.0000 C   0  0  0  0  0  0  0  0  0  0  0  0
   -6.1317    0.0855    0.0000 N   0  0  0  0  0  0  0  0  0  0  0  0
   -7.5583    0.5490    0.0000 N   0  0  0  0  0  0  0  0  0  0  0  0
   -7.5583    2.0490    0.0000 N   0  0  0  0  0  0  0  0  0  0  0  0
   -6.1317    2.5126    0.0000 N   0  0  0  0  0  0  0  0  0  0  0  0
   -5.6682    3.9391    0.0000 C   0  0  0  0  0  0  0  0  0  0  0  0
   -4.2009    4.2510    0.0000 C   0  0  0  0  0  0  0  0  0  0  0  0
   -3.7374    5.6776    0.0000 C   0  0  0  0  0  0  0  0  0  0  0  0
   -4.7411    6.7923    0.0000 C   0  0  0  0  0  0  0  0  0  0  0  0
   -4.2776    8.2189    0.0000 C   0  0  0  0  0  0  0  0  0  0  0  0
   -5.2813    9.3336    0.0000 O   0  0  0  0  0  0  0  0  0  0  0  0
   -2.8104    8.5308    0.0000 N   0  0  0  0  0  0  0  0  0  0  0  0
   -2.3468    9.9574    0.0000 O   0  0  0  0  0  0  0  0  0  0  0  0
   -6.2083    6.4805    0.0000 N   0  0  0  0  0  0  0  0  0  0  0  0
   -6.6718    5.0539    0.0000 C   0  0  0  0  0  0  0  0  0  0  0  0
   -8.1391    4.7420    0.0000 O   0  0  0  0  0  0  0  0  0  0  0  0
   -0.7500    1.2990    0.0000 C   0  0  0  0  0  0  0  0  0  0  0  0
   -1.5000    2.5981    0.0000 O   0  0  0  0  0  0  0  0  0  0  0  0
    0.7500    1.2990    0.0000 N   0  0  0  0  0  0  0  0  0  0  0  0
  1  2  1  0
  2  3  2  0
  3  4  1  0
  4  5  2  0
  5  6  1  0
  6  7  2  0
  6  8  1  0
  8  9  1  0
  9 10  2  0
 10 11  1  0
 11 12  2  0
 12 13  1  0
 13 14  1  0
 14 15  2  0
 15 16  1  0
 16 17  2  0
 17 18  1  0
 18 19  2  0
 18 20  1  0
 20 21  1  0
 17 22  1  0
 22 23  1  0
 23 24  2  0
  5 25  1  0
 25 26  2  0
 25 27  1  0
 27  2  1  0
 13  9  1  0
 23 14  1  0
M  END
>  <Title>  (537) 
idAAUQgen8

$$$$

     RDKit          2D

 34 38  0  0  0  0  0  0  0  0999 V2000
    3.7500    1.2990    0.0000 C   0  0  0  0  0  0  0  0  0  0  0  0
    3.0000    0.0000    0.0000 O   0  0  0  0  0  0  0  0  0  0  0  0
    1.5000    0.0000    0.0000 C   0  0  0  0  0  0  0  0  0  0  0  0
    0.7500    1.2990    0.0000 C   0  0  0  0  0  0  0  0  0  0  0  0
   -0.7500    1.2990    0.0000 C   0  0  0  0  0  0  0  0  0  0  0  0
   -1.5000    0.0000    0.0000 C   0  0  0  0  0  0  0  0  0  0  0  0
   -3.0000    0.0000    0.0000 C   0  0  0  0  0  0  0  0  0  0  0  0
   -3.8817   -1.2135    0.0000 N   0  0  0  0  0  0  0  0  0  0  0  0
   -5.3083   -0.7500    0.0000 N   0  0  0  0  0  0  0  0  0  0  0  0
   -5.3083    0.7500    0.0000 N   0  0  0  0  0  0  0  0  0  0  0  0
   -3.8817    1.2135    0.0000 N   0  0  0  0  0  0  0  0  0  0  0  0
   -3.4182    2.6401    0.0000 C   0  0  0  0  0  0  0  0  0  0  0  0
   -1.9509    2.9520    0.0000 C   0  0  0  0  0  0  0  0  0  0  0  0
   -1.4874    4.3786    0.0000 C   0  0  0  0  0  0  0  0  0  0  0  0
   -2.4911    5.4933    0.0000 C   0  0  0  0  0  0  0  0  0  0  0  0
   -2.0276    6.9199    0.0000 C   0  0  0  0  0  0  0  0  0  0  0  0
   -3.0313    8.0346    0.0000 O   0  0  0  0  0  0  0  0  0  0  0  0
   -0.5604    7.2317    0.0000 N   0  0  0  0  0  0  0  0  0  0  0  0
   -0.0968    8.6583    0.0000 C   0  0  0  0  0  0  0  0  0  0  0  0
   -0.9785    9.8718    0.0000 N   0  0  0  0  0  0  0  0  0  0  0  0
   -0.0968   11.0854    0.0000 N   0  0  0  0  0  0  0  0  0  0  0  0
    1.3298   10.6218    0.0000 N   0  0  0  0  0  0  0  0  0  0  0  0
    1.3298    9.1218    0.0000 N   0  0  0  0  0  0  0  0  0  0  0  0
    2.5433    8.2402    0.0000 C   0  0  0  0  0  0  0  0  0  0  0  0
    2.3865    6.7484    0.0000 C   0  0  0  0  0  0  0  0  0  0  0  0
    3.6000    5.8667    0.0000 C   0  0  0  0  0  0  0  0  0  0  0  0
    4.9703    6.4768    0.0000 C   0  0  0  0  0  0  0  0  0  0  0  0
    5.1271    7.9686    0.0000 N   0  0  0  0  0  0  0  0  0  0  0  0
    3.9136    8.8503    0.0000 C   0  0  0  0  0  0  0  0  0  0  0  0
   -3.9583    5.1814    0.0000 C   0  0  0  0  0  0  0  0  0  0  0  0
   -4.4218    3.7548    0.0000 C   0  0  0  0  0  0  0  0  0  0  0  0
   -0.7500   -1.2990    0.0000 C   0  0  0  0  0  0  0  0  0  0  0  0
   -1.5000   -2.5981    0.0000 O   0  0  0  0  0  0  0  0  0  0  0  0
    0.7500   -1.2990    0.0000 N   0  0  0  0  0  0  0  0  0  0  0  0
  1  2  1  0
  2  3  1  0
  3  4  2  0
  4  5  1  0
  5  6  2  0
  6  7  1  0
  7  8  2  0
  8  9  1  0
  9 10  2  0
 10 11  1  0
 11 12  1  0
 12 13  2  0
 13 14  1  0
 14 15  2  0
 15 16  1  0
 16 17  2  0
 16 18  1  0
 18 19  1  0
 19 20  2  0
 20 21  1  0
 21 22  2  0
 22 23  1  0
 23 24  1  0
 24 25  2  0
 25 26  1  0
 26 27  2  0
 27 28  1  0
 28 29  2  0
 15 30  1  0
 30 31  2  0
  6 32  1  0
 32 33  2  0
 32 34  1  0
 34  3  1  0
 11  7  1  0
 31 12  1  0
 23 19  1  0
 29 24  1  0
M  END
>  <Title>  (538) 
idAAURgen8

$$$$

     RDKit          2D

 37 42  0  0  0  0  0  0  0  0999 V2000
    3.0000    0.0000    0.0000 C   0  0  0  0  0  0  0  0  0  0  0  0
    1.5000    0.0000    0.0000 C   0  0  0  0  0  0  0  0  0  0  0  0
    0.7500    1.2990    0.0000 C   0  0  0  0  0  0  0  0  0  0  0  0
   -0.7500    1.2990    0.0000 C   0  0  0  0  0  0  0  0  0  0  0  0
   -1.5000    0.0000    0.0000 C   0  0  0  0  0  0  0  0  0  0  0  0
   -3.0000    0.0000    0.0000 C   0  0  0  0  0  0  0  0  0  0  0  0
   -3.8817   -1.2135    0.0000 N   0  0  0  0  0  0  0  0  0  0  0  0
   -5.3083   -0.7500    0.0000 N   0  0  0  0  0  0  0  0  0  0  0  0
   -5.3083    0.7500    0.0000 N   0  0  0  0  0  0  0  0  0  0  0  0
   -3.8817    1.2135    0.0000 N   0  0  0  0  0  0  0  0  0  0  0  0
   -3.4182    2.6401    0.0000 C   0  0  0  0  0  0  0  0  0  0  0  0
   -4.2998    3.8536    0.0000 C   0  0  0  0  0  0  0  0  0  0  0  0
   -3.4182    5.0672    0.0000 C   0  0  0  0  0  0  0  0  0  0  0  0
   -1.9916    4.6036    0.0000 C   0  0  0  0  0  0  0  0  0  0  0  0
   -0.7780    5.4853    0.0000 N   0  0  0  0  0  0  0  0  0  0  0  0
    0.5923    4.8752    0.0000 N   0  0  0  0  0  0  0  0  0  0  0  0
    1.8058    5.7569    0.0000 N   0  0  0  0  0  0  0  0  0  0  0  0
    1.6490    7.2487    0.0000 N   0  0  0  0  0  0  0  0  0  0  0  0
    0.2787    7.8588    0.0000 N   0  0  0  0  0  0  0  0  0  0  0  0
   -0.9348    6.9771    0.0000 N   0  0  0  0  0  0  0  0  0  0  0  0
   -2.3052    7.5872    0.0000 C   0  0  0  0  0  0  0  0  0  0  0  0
   -3.5187    6.7055    0.0000 C   0  0  0  0  0  0  0  0  0  0  0  0
   -4.8890    7.3156    0.0000 C   0  0  0  0  0  0  0  0  0  0  0  0
   -5.0458    8.8074    0.0000 C   0  0  0  0  0  0  0  0  0  0  0  0
   -3.8323    9.6891    0.0000 C   0  0  0  0  0  0  0  0  0  0  0  0
   -2.4619    9.0790    0.0000 C   0  0  0  0  0  0  0  0  0  0  0  0
   -1.2484    9.9607    0.0000 C   0  0  0  0  0  0  0  0  0  0  0  0
   -1.4052   11.4524    0.0000 C   0  0  0  0  0  0  0  0  0  0  0  0
   -0.1917   12.3341    0.0000 C   0  0  0  0  0  0  0  0  0  0  0  0
    1.1786   11.7240    0.0000 C   0  0  0  0  0  0  0  0  0  0  0  0
    1.3354   10.2322    0.0000 C   0  0  0  0  0  0  0  0  0  0  0  0
    0.1219    9.3506    0.0000 C   0  0  0  0  0  0  0  0  0  0  0  0
   -1.9916    3.1036    0.0000 C   0  0  0  0  0  0  0  0  0  0  0  0
   -0.7780    2.2220    0.0000 O   0  0  0  0  0  0  0  0  0  0  0  0
   -0.7500   -1.2990    0.0000 C   0  0  0  0  0  0  0  0  0  0  0  0
   -1.5000   -2.5981    0.0000 O   0  0  0  0  0  0  0  0  0  0  0  0
    0.7500   -1.2990    0.0000 N   0  0  0  0  0  0  0  0  0  0  0  0
  1  2  1  0
  2  3  2  0
  3  4  1  0
  4  5  2  0
  5  6  1  0
  6  7  2  0
  7  8  1  0
  8  9  2  0
  9 10  1  0
 10 11  1  0
 11 12  2  0
 12 13  1  0
 13 14  2  0
 14 15  1  0
 15 16  1  0
 16 17  2  0
 17 18  1  0
 18 19  2  0
 19 20  1  0
 20 21  1  0
 21 22  1  0
 22 23  1  0
 23 24  1  0
 24 25  1  0
 25 26  1  0
 26 27  1  0
 27 28  2  0
 28 29  1  0
 29 30  2  0
 30 31  1  0
 31 32  2  0
 14 33  1  0
 33 34  2  0
  5 35  1  0
 35 36  2  0
 35 37  1  0
 37  2  1  0
 10  6  1  0
 33 11  1  0
 20 15  1  0
 26 21  1  0
 32 27  1  0
M  END
>  <Title>  (539) 
idAAUSgen8

$$$$

     RDKit          2D

 43 48  0  0  0  0  0  0  0  0999 V2000
    3.0000    0.0000    0.0000 C   0  0  0  0  0  0  0  0  0  0  0  0
    1.5000    0.0000    0.0000 C   0  0  0  0  0  0  0  0  0  0  0  0
    0.7500   -1.2990    0.0000 C   0  0  0  0  0  0  0  0  0  0  0  0
   -0.7500   -1.2990    0.0000 C   0  0  0  0  0  0  0  0  0  0  0  0
   -1.5000    0.0000    0.0000 C   0  0  0  0  0  0  0  0  0  0  0  0
   -3.0000    0.0000    0.0000 C   0  0  0  0  0  0  0  0  0  0  0  0
   -3.7500   -1.2990    0.0000 O   0  0  0  0  0  0  0  0  0  0  0  0
   -3.7500    1.2990    0.0000 N   0  0  0  0  0  0  0  0  0  0  0  0
   -5.2500    1.2990    0.0000 C   0  0  0  0  0  0  0  0  0  0  0  0
   -6.1317    0.0855    0.0000 N   0  0  0  0  0  0  0  0  0  0  0  0
   -7.5583    0.5490    0.0000 N   0  0  0  0  0  0  0  0  0  0  0  0
   -7.5583    2.0490    0.0000 N   0  0  0  0  0  0  0  0  0  0  0  0
   -6.1317    2.5126    0.0000 N   0  0  0  0  0  0  0  0  0  0  0  0
   -5.6682    3.9391    0.0000 C   0  0  0  0  0  0  0  0  0  0  0  0
   -6.5498    5.1527    0.0000 C   0  0  0  0  0  0  0  0  0  0  0  0
   -5.6682    6.3662    0.0000 C   0  0  0  0  0  0  0  0  0  0  0  0
   -4.2416    5.9027    0.0000 C   0  0  0  0  0  0  0  0  0  0  0  0
   -3.0280    6.7844    0.0000 C   0  0  0  0  0  0  0  0  0  0  0  0
   -3.0280    8.2844    0.0000 N   0  0  0  0  0  0  0  0  0  0  0  0
   -1.6015    8.7479    0.0000 N   0  0  0  0  0  0  0  0  0  0  0  0
   -0.7198    7.5344    0.0000 N   0  0  0  0  0  0  0  0  0  0  0  0
   -1.6015    6.3208    0.0000 N   0  0  0  0  0  0  0  0  0  0  0  0
   -1.1379    4.8942    0.0000 C   0  0  0  0  0  0  0  0  0  0  0  0
   -2.0196    3.6807    0.0000 C   0  0  0  0  0  0  0  0  0  0  0  0
   -1.1379    2.4672    0.0000 N   0  0  0  0  0  0  0  0  0  0  0  0
    0.2887    2.9307    0.0000 N   0  0  0  0  0  0  0  0  0  0  0  0
    0.2887    4.4307    0.0000 N   0  0  0  0  0  0  0  0  0  0  0  0
    1.5022    5.3124    0.0000 C   0  0  0  0  0  0  0  0  0  0  0  0
    1.3454    6.8042    0.0000 C   0  0  0  0  0  0  0  0  0  0  0  0
    2.5589    7.6859    0.0000 C   0  0  0  0  0  0  0  0  0  0  0  0
    3.9292    7.0757    0.0000 C   0  0  0  0  0  0  0  0  0  0  0  0
    5.1428    7.9574    0.0000 C   0  0  0  0  0  0  0  0  0  0  0  0
    6.5131    7.3473    0.0000 O   0  0  0  0  0  0  0  0  0  0  0  0
    4.9860    9.4492    0.0000 N   0  0  0  0  0  0  0  0  0  0  0  0
    6.1995   10.3309    0.0000 O   0  0  0  0  0  0  0  0  0  0  0  0
    4.0860    5.5840    0.0000 N   0  0  0  0  0  0  0  0  0  0  0  0
    2.8725    4.7023    0.0000 C   0  0  0  0  0  0  0  0  0  0  0  0
    3.0293    3.2105    0.0000 O   0  0  0  0  0  0  0  0  0  0  0  0
   -4.2416    4.4027    0.0000 C   0  0  0  0  0  0  0  0  0  0  0  0
   -3.0280    3.5210    0.0000 O   0  0  0  0  0  0  0  0  0  0  0  0
   -0.7500    1.2990    0.0000 N   0  0  0  0  0  0  0  0  0  0  0  0
    0.7500    1.2990    0.0000 C   0  0  0  0  0  0  0  0  0  0  0  0
    1.5000    2.5981    0.0000 O   0  0  0  0  0  0  0  0  0  0  0  0
  1  2  1  0
  2  3  2  0
  3  4  1  0
  4  5  2  0
  5  6  1  0
  6  7  2  0
  6  8  1  0
  8  9  1  0
  9 10  2  0
 10 11  1  0
 11 12  2  0
 12 13  1  0
 13 14  1  0
 14 15  2  0
 15 16  1  0
 16 17  2  0
 17 18  1  0
 18 19  2  0
 19 20  1  0
 20 21  2  0
 21 22  1  0
 22 23  1  0
 23 24  2  0
 24 25  1  0
 25 26  2  0
 26 27  1  0
 27 28  1  0
 28 29  2  0
 29 30  1  0
 30 31  2  0
 31 32  1  0
 32 33  2  0
 32 34  1  0
 34 35  1  0
 31 36  1  0
 36 37  1  0
 37 38  2  0
 17 39  1  0
 39 40  2  0
  5 41  1  0
 41 42  1  0
 42 43  2  0
 42  2  1  0
 13  9  1  0
 39 14  1  0
 22 18  1  0
 27 23  1  0
 37 28  1  0
M  END
>  <Title>  (540) 
idAAUTgen8

$$$$

     RDKit          2D

 30 33  0  0  0  0  0  0  0  0999 V2000
    3.0000    0.0000    0.0000 C   0  0  0  0  0  0  0  0  0  0  0  0
    1.5000    0.0000    0.0000 C   0  0  0  0  0  0  0  0  0  0  0  0
    0.7500    1.2990    0.0000 C   0  0  0  0  0  0  0  0  0  0  0  0
   -0.7500    1.2990    0.0000 C   0  0  0  0  0  0  0  0  0  0  0  0
   -1.5000    0.0000    0.0000 C   0  0  0  0  0  0  0  0  0  0  0  0
   -3.0000    0.0000    0.0000 C   0  0  0  0  0  0  0  0  0  0  0  0
   -3.8817   -1.2135    0.0000 N   0  0  0  0  0  0  0  0  0  0  0  0
   -5.3083   -0.7500    0.0000 N   0  0  0  0  0  0  0  0  0  0  0  0
   -5.3083    0.7500    0.0000 N   0  0  0  0  0  0  0  0  0  0  0  0
   -3.8817    1.2135    0.0000 N   0  0  0  0  0  0  0  0  0  0  0  0
   -3.4182    2.6401    0.0000 C   0  0  0  0  0  0  0  0  0  0  0  0
   -1.9509    2.9520    0.0000 C   0  0  0  0  0  0  0  0  0  0  0  0
   -1.4874    4.3786    0.0000 C   0  0  0  0  0  0  0  0  0  0  0  0
   -2.4911    5.4933    0.0000 C   0  0  0  0  0  0  0  0  0  0  0  0
   -3.9583    5.1814    0.0000 C   0  0  0  0  0  0  0  0  0  0  0  0
   -4.4218    3.7548    0.0000 C   0  0  0  0  0  0  0  0  0  0  0  0
   -5.8891    3.4430    0.0000 C   0  0  0  0  0  0  0  0  0  0  0  0
   -6.3526    2.0164    0.0000 C   0  0  0  0  0  0  0  0  0  0  0  0
   -7.8198    1.7045    0.0000 C   0  0  0  0  0  0  0  0  0  0  0  0
   -8.8235    2.8192    0.0000 C   0  0  0  0  0  0  0  0  0  0  0  0
  -10.2907    2.5074    0.0000 C   0  0  0  0  0  0  0  0  0  0  0  0
  -11.2944    3.6221    0.0000 O   0  0  0  0  0  0  0  0  0  0  0  0
  -10.7543    1.0808    0.0000 N   0  0  0  0  0  0  0  0  0  0  0  0
  -12.2215    0.7689    0.0000 O   0  0  0  0  0  0  0  0  0  0  0  0
   -8.3600    4.2458    0.0000 N   0  0  0  0  0  0  0  0  0  0  0  0
   -6.8928    4.5577    0.0000 C   0  0  0  0  0  0  0  0  0  0  0  0
   -6.4292    5.9843    0.0000 O   0  0  0  0  0  0  0  0  0  0  0  0
   -0.7500   -1.2990    0.0000 C   0  0  0  0  0  0  0  0  0  0  0  0
   -1.5000   -2.5981    0.0000 O   0  0  0  0  0  0  0  0  0  0  0  0
    0.7500   -1.2990    0.0000 N   0  0  0  0  0  0  0  0  0  0  0  0
  1  2  1  0
  2  3  2  0
  3  4  1  0
  4  5  2  0
  5  6  1  0
  6  7  2  0
  7  8  1  0
  8  9  2  0
  9 10  1  0
 10 11  1  0
 11 12  1  0
 12 13  1  0
 13 14  1  0
 14 15  1  0
 15 16  1  0
 16 17  1  0
 17 18  2  0
 18 19  1  0
 19 20  2  0
 20 21  1  0
 21 22  2  0
 21 23  1  0
 23 24  1  0
 20 25  1  0
 25 26  1  0
 26 27  2  0
  5 28  1  0
 28 29  2  0
 28 30  1  0
 30  2  1  0
 10  6  1  0
 16 11  1  0
 26 17  1  0
M  END
>  <Title>  (541) 
idAAUUgen8

$$$$

     RDKit          2D

 59 67  0  0  0  0  0  0  0  0999 V2000
  -17.4036  -10.5813    0.0000 C   0  0  0  0  0  0  0  0  0  0  0  0
  -15.9420  -10.2439    0.0000 C   0  0  0  0  0  0  0  0  0  0  0  0
  -15.0710  -11.4650    0.0000 C   0  0  0  0  0  0  0  0  0  0  0  0
  -13.5915  -11.7126    0.0000 C   0  0  0  0  0  0  0  0  0  0  0  0
  -12.3704  -10.8415    0.0000 C   0  0  0  0  0  0  0  0  0  0  0  0
  -12.1228   -9.3621    0.0000 C   0  0  0  0  0  0  0  0  0  0  0  0
  -12.9939   -8.1409    0.0000 C   0  0  0  0  0  0  0  0  0  0  0  0
  -12.1990   -6.8689    0.0000 N   0  0  0  0  0  0  0  0  0  0  0  0
  -12.9032   -5.5444    0.0000 N   0  0  0  0  0  0  0  0  0  0  0  0
  -12.1083   -4.2724    0.0000 N   0  0  0  0  0  0  0  0  0  0  0  0
  -10.6092   -4.3247    0.0000 N   0  0  0  0  0  0  0  0  0  0  0  0
   -9.9050   -5.6491    0.0000 N   0  0  0  0  0  0  0  0  0  0  0  0
  -10.6999   -6.9212    0.0000 N   0  0  0  0  0  0  0  0  0  0  0  0
   -9.9957   -8.2456    0.0000 C   0  0  0  0  0  0  0  0  0  0  0  0
  -10.7906   -9.5177    0.0000 C   0  0  0  0  0  0  0  0  0  0  0  0
  -10.0864  -10.8421    0.0000 C   0  0  0  0  0  0  0  0  0  0  0  0
   -8.5873  -10.8945    0.0000 C   0  0  0  0  0  0  0  0  0  0  0  0
   -7.8831  -12.2189    0.0000 C   0  0  0  0  0  0  0  0  0  0  0  0
   -6.3840  -12.2713    0.0000 O   0  0  0  0  0  0  0  0  0  0  0  0
   -8.6779  -13.4910    0.0000 N   0  0  0  0  0  0  0  0  0  0  0  0
   -7.9737  -14.8154    0.0000 C   0  0  0  0  0  0  0  0  0  0  0  0
   -6.4883  -15.0242    0.0000 N   0  0  0  0  0  0  0  0  0  0  0  0
   -6.2279  -16.5014    0.0000 N   0  0  0  0  0  0  0  0  0  0  0  0
   -7.5523  -17.2056    0.0000 N   0  0  0  0  0  0  0  0  0  0  0  0
   -8.6313  -16.1636    0.0000 N   0  0  0  0  0  0  0  0  0  0  0  0
  -10.1085  -16.4241    0.0000 C   0  0  0  0  0  0  0  0  0  0  0  0
  -11.0727  -15.2750    0.0000 C   0  0  0  0  0  0  0  0  0  0  0  0
  -12.5499  -15.5355    0.0000 C   0  0  0  0  0  0  0  0  0  0  0  0
  -13.0629  -16.9450    0.0000 C   0  0  0  0  0  0  0  0  0  0  0  0
  -12.0987  -18.0941    0.0000 C   0  0  0  0  0  0  0  0  0  0  0  0
  -10.6215  -17.8336    0.0000 C   0  0  0  0  0  0  0  0  0  0  0  0
   -7.7924   -9.6224    0.0000 C   0  0  0  0  0  0  0  0  0  0  0  0
   -8.4966   -8.2980    0.0000 C   0  0  0  0  0  0  0  0  0  0  0  0
   -7.7017   -7.0259    0.0000 C   0  0  0  0  0  0  0  0  0  0  0  0
   -6.2026   -7.0783    0.0000 C   0  0  0  0  0  0  0  0  0  0  0  0
   -5.4077   -5.8062    0.0000 C   0  0  0  0  0  0  0  0  0  0  0  0
   -6.1120   -4.4818    0.0000 C   0  0  0  0  0  0  0  0  0  0  0  0
   -5.3171   -3.2097    0.0000 C   0  0  0  0  0  0  0  0  0  0  0  0
   -3.8499   -3.5216    0.0000 C   0  0  0  0  0  0  0  0  0  0  0  0
   -2.5254   -2.8174    0.0000 C   0  0  0  0  0  0  0  0  0  0  0  0
   -1.9635   -1.4266    0.0000 C   0  0  0  0  0  0  0  0  0  0  0  0
   -2.4271    0.0000    0.0000 C   0  0  0  0  0  0  0  0  0  0  0  0
   -3.6991    0.7949    0.0000 N   0  0  0  0  0  0  0  0  0  0  0  0
   -5.1845    0.5861    0.0000 N   0  0  0  0  0  0  0  0  0  0  0  0
   -6.1882   -0.5286    0.0000 N   0  0  0  0  0  0  0  0  0  0  0  0
   -6.2406   -2.0277    0.0000 N   0  0  0  0  0  0  0  0  0  0  0  0
    1.9635   -1.4266    0.0000 C   0  0  0  0  0  0  0  0  0  0  0  0
    2.4271    0.0000    0.0000 C   0  0  0  0  0  0  0  0  0  0  0  0
    1.9635    1.4266    0.0000 C   0  0  0  0  0  0  0  0  0  0  0  0
    0.7500    2.3083    0.0000 C   0  0  0  0  0  0  0  0  0  0  0  0
   -0.7500    2.3083    0.0000 C   0  0  0  0  0  0  0  0  0  0  0  0
   -1.9635    1.4266    0.0000 C   0  0  0  0  0  0  0  0  0  0  0  0
    0.7500   -2.3083    0.0000 C   0  0  0  0  0  0  0  0  0  0  0  0
   -0.7500   -2.3083    0.0000 C   0  0  0  0  0  0  0  0  0  0  0  0
   -7.6110   -4.4294    0.0000 C   0  0  0  0  0  0  0  0  0  0  0  0
   -8.4059   -5.7015    0.0000 C   0  0  0  0  0  0  0  0  0  0  0  0
  -14.4733   -7.8934    0.0000 C   0  0  0  0  0  0  0  0  0  0  0  0
  -14.8107   -6.4318    0.0000 O   0  0  0  0  0  0  0  0  0  0  0  0
  -15.6945   -8.7644    0.0000 N   0  0  0  0  0  0  0  0  0  0  0  0
  1  2  1  0
  2  3  2  0
  3  4  1  0
  4  5  2  0
  5  6  1  0
  6  7  2  0
  7  8  1  0
  8  9  1  0
  9 10  2  0
 10 11  1  0
 11 12  2  0
 12 13  1  0
 13 14  1  0
 14 15  2  0
 15 16  1  0
 16 17  2  0
 17 18  1  0
 18 19  2  0
 18 20  1  0
 20 21  1  0
 21 22  2  0
 22 23  1  0
 23 24  2  0
 24 25  1  0
 25 26  1  0
 26 27  2  0
 27 28  1  0
 28 29  2  0
 29 30  1  0
 30 31  2  0
 17 32  1  0
 32 33  2  0
 33 34  1  0
 34 35  2  0
 35 36  1  0
 36 37  2  0
 37 38  1  0
 38 39  2  0
 39 40  1  0
 40 41  2  0
 41 42  1  0
 42 43  2  0
 43 44  1  0
 44 45  2  0
 45 46  1  0
 46 47  1  0
 47 48  2  0
 48 49  1  0
 49 50  2  0
 50 51  1  0
 51 52  2  0
 47 53  1  0
 53 54  1  0
 37 55  1  0
 55 56  2  0
  7 57  1  0
 57 58  2  0
 57 59  1  0
 59  2  1  0
 13  8  1  0
 33 14  1  0
 56 34  1  0
 25 21  1  0
 31 26  1  0
 46 38  1  0
 54 41  1  0
 52 42  1  0
M  END
>  <Title>  (542) 
idAAUVgen8

$$$$

     RDKit          2D

 12 12  0  0  0  0  0  0  0  0999 V2000
    4.1621    0.0000    0.0000 O   0  0  0  0  0  0  0  0  0  0  0  0
    2.6621    0.0000    0.0000 C   0  0  0  0  0  0  0  0  0  0  0  0
    2.2395    1.4392    0.0000 C   0  0  0  0  0  0  0  0  0  0  0  0
    1.1059    2.4215    0.0000 C   0  0  0  0  0  0  0  0  0  0  0  0
   -0.3789    2.6350    0.0000 C   0  0  0  0  0  0  0  0  0  0  0  0
   -1.7433    2.0119    0.0000 C   0  0  0  0  0  0  0  0  0  0  0  0
   -2.5543    0.7500    0.0000 C   0  0  0  0  0  0  0  0  0  0  0  0
   -2.5543   -0.7500    0.0000 C   0  0  0  0  0  0  0  0  0  0  0  0
   -1.7433   -2.0119    0.0000 C   0  0  0  0  0  0  0  0  0  0  0  0
   -0.3789   -2.6350    0.0000 C   0  0  0  0  0  0  0  0  0  0  0  0
    1.1059   -2.4215    0.0000 C   0  0  0  0  0  0  0  0  0  0  0  0
    2.2395   -1.4392    0.0000 C   0  0  0  0  0  0  0  0  0  0  0  0
  1  2  2  0
  2  3  1  0
  3  4  2  0
  4  5  1  0
  5  6  2  0
  6  7  1  0
  7  8  2  0
  8  9  1  0
  9 10  2  0
 10 11  1  0
 11 12  1  0
 12  2  1  0
M  END
>  <Title>  (543) 
idAAUWgen8

$$$$

     RDKit          2D

 25 25  0  0  0  0  0  0  0  0999 V2000
    7.2460    0.0000    0.0000 C   0  0  0  0  0  0  0  0  0  0  0  0
    5.7460    0.0000    0.0000 C   0  0  0  0  0  0  0  0  0  0  0  0
    5.5502   -1.4872    0.0000 C   0  0  0  0  0  0  0  0  0  0  0  0
    4.9762   -2.8730    0.0000 C   0  0  0  0  0  0  0  0  0  0  0  0
    4.0630   -4.0630    0.0000 C   0  0  0  0  0  0  0  0  0  0  0  0
    2.8730   -4.9762    0.0000 C   0  0  0  0  0  0  0  0  0  0  0  0
    1.4872   -5.5502    0.0000 C   0  0  0  0  0  0  0  0  0  0  0  0
   -0.0000   -5.7460    0.0000 C   0  0  0  0  0  0  0  0  0  0  0  0
   -1.4872   -5.5502    0.0000 C   0  0  0  0  0  0  0  0  0  0  0  0
   -2.8730   -4.9762    0.0000 C   0  0  0  0  0  0  0  0  0  0  0  0
   -4.0630   -4.0630    0.0000 C   0  0  0  0  0  0  0  0  0  0  0  0
   -4.9762   -2.8730    0.0000 C   0  0  0  0  0  0  0  0  0  0  0  0
   -5.5502   -1.4872    0.0000 C   0  0  0  0  0  0  0  0  0  0  0  0
   -5.7460    0.0000    0.0000 C   0  0  0  0  0  0  0  0  0  0  0  0
   -5.5502    1.4872    0.0000 C   0  0  0  0  0  0  0  0  0  0  0  0
   -4.9762    2.8730    0.0000 C   0  0  0  0  0  0  0  0  0  0  0  0
   -4.0630    4.0630    0.0000 C   0  0  0  0  0  0  0  0  0  0  0  0
   -2.8730    4.9762    0.0000 C   0  0  0  0  0  0  0  0  0  0  0  0
   -1.4872    5.5502    0.0000 C   0  0  0  0  0  0  0  0  0  0  0  0
    0.0000    5.7460    0.0000 C   0  0  0  0  0  0  0  0  0  0  0  0
    1.4872    5.5502    0.0000 C   0  0  0  0  0  0  0  0  0  0  0  0
    2.8730    4.9762    0.0000 C   0  0  0  0  0  0  0  0  0  0  0  0
    4.0630    4.0630    0.0000 C   0  0  0  0  0  0  0  0  0  0  0  0
    4.9762    2.8730    0.0000 C   0  0  0  0  0  0  0  0  0  0  0  0
    5.5502    1.4872    0.0000 C   0  0  0  0  0  0  0  0  0  0  0  0
  1  2  1  0
  2  3  2  0
  3  4  1  0
  4  5  2  0
  5  6  1  0
  6  7  2  0
  7  8  1  0
  8  9  2  0
  9 10  1  0
 10 11  2  0
 11 12  1  0
 12 13  2  0
 13 14  1  0
 14 15  2  0
 15 16  1  0
 16 17  2  0
 17 18  1  0
 18 19  2  0
 19 20  1  0
 20 21  2  0
 21 22  1  0
 22 23  2  0
 23 24  1  0
 24 25  2  0
 25  2  1  0
M  END
>  <Title>  (544) 
idAAUXgen8

$$$$

     RDKit          2D

 36 38  0  0  0  0  0  0  0  0999 V2000
   -3.7078   -0.6235    0.0000 C   0  0  0  0  0  0  0  0  0  0  0  0
   -2.9852   -1.9380    0.0000 C   0  0  0  0  0  0  0  0  0  0  0  0
   -4.1987   -2.8197    0.0000 C   0  0  0  0  0  0  0  0  0  0  0  0
   -5.1549   -3.9755    0.0000 C   0  0  0  0  0  0  0  0  0  0  0  0
   -5.7935   -5.3327    0.0000 C   0  0  0  0  0  0  0  0  0  0  0  0
   -6.0746   -6.8061    0.0000 C   0  0  0  0  0  0  0  0  0  0  0  0
   -5.9804   -8.3032    0.0000 C   0  0  0  0  0  0  0  0  0  0  0  0
   -5.5169   -9.7298    0.0000 C   0  0  0  0  0  0  0  0  0  0  0  0
   -4.7131  -10.9962    0.0000 C   0  0  0  0  0  0  0  0  0  0  0  0
   -3.6197  -12.0231    0.0000 C   0  0  0  0  0  0  0  0  0  0  0  0
   -2.3052  -12.7457    0.0000 C   0  0  0  0  0  0  0  0  0  0  0  0
   -0.8524  -13.1187    0.0000 C   0  0  0  0  0  0  0  0  0  0  0  0
    0.6476  -13.1187    0.0000 C   0  0  0  0  0  0  0  0  0  0  0  0
    2.1005  -12.7457    0.0000 C   0  0  0  0  0  0  0  0  0  0  0  0
    3.4150  -12.0231    0.0000 C   0  0  0  0  0  0  0  0  0  0  0  0
    4.5084  -10.9962    0.0000 C   0  0  0  0  0  0  0  0  0  0  0  0
    5.3122   -9.7298    0.0000 C   0  0  0  0  0  0  0  0  0  0  0  0
    5.7757   -8.3032    0.0000 C   0  0  0  0  0  0  0  0  0  0  0  0
    5.8699   -6.8061    0.0000 C   0  0  0  0  0  0  0  0  0  0  0  0
    5.5888   -5.3327    0.0000 C   0  0  0  0  0  0  0  0  0  0  0  0
    4.9501   -3.9755    0.0000 C   0  0  0  0  0  0  0  0  0  0  0  0
    3.9940   -2.8197    0.0000 C   0  0  0  0  0  0  0  0  0  0  0  0
    2.7805   -1.9380    0.0000 C   0  0  0  0  0  0  0  0  0  0  0  0
    1.3858   -1.3858    0.0000 C   0  0  0  0  0  0  0  0  0  0  0  0
    1.9598    0.0000    0.0000 O   0  0  0  0  0  0  0  0  0  0  0  0
    1.3858    1.3858    0.0000 C   0  0  0  0  0  0  0  0  0  0  0  0
    0.0000    1.9598    0.0000 C   0  0  0  0  0  0  0  0  0  0  0  0
   -1.3858    1.3858    0.0000 C   0  0  0  0  0  0  0  0  0  0  0  0
   -1.9598    0.0000    0.0000 C   0  0  0  0  0  0  0  0  0  0  0  0
   -1.3858   -1.3858    0.0000 C   0  0  0  0  0  0  0  0  0  0  0  0
   -0.0000   -1.9598    0.0000 N   0  0  0  0  0  0  0  0  0  0  0  0
   -0.0000   -3.4598    0.0000 C   0  0  0  0  0  0  0  0  0  0  0  0
    1.2135   -4.3415    0.0000 O   0  0  0  0  0  0  0  0  0  0  0  0
    0.7500   -5.7681    0.0000 C   0  0  0  0  0  0  0  0  0  0  0  0
   -0.7500   -5.7681    0.0000 C   0  0  0  0  0  0  0  0  0  0  0  0
   -1.2135   -4.3415    0.0000 O   0  0  0  0  0  0  0  0  0  0  0  0
  1  2  1  0
  2  3  2  0
  3  4  1  0
  4  5  2  0
  5  6  2  0
  6  7  1  0
  7  8  2  0
  8  9  1  0
  9 10  2  0
 10 11  1  0
 11 12  2  0
 12 13  1  0
 13 14  2  0
 14 15  1  0
 15 16  2  0
 16 17  1  0
 17 18  2  0
 18 19  1  0
 19 20  2  0
 20 21  1  0
 21 22  2  0
 22 23  1  0
 23 24  2  0
 24 25  1  0
 25 26  1  0
 26 27  1  0
 27 28  2  0
 28 29  1  0
 29 30  2  0
 30 31  1  0
 31 32  1  0
 32 33  1  0
 33 34  1  0
 34 35  1  0
 35 36  1  0
 30  2  1  0
 36 32  1  0
 31 24  1  0
M  END
>  <Title>  (545) 
idAAUYgen8

$$$$

     RDKit          2D

 47 49  0  0  0  0  0  0  0  0999 V2000
    8.9486   -1.2990    0.0000 C   0  0  0  0  0  0  0  0  0  0  0  0
    8.1986    0.0000    0.0000 O   0  0  0  0  0  0  0  0  0  0  0  0
    6.6986    0.0000    0.0000 C   0  0  0  0  0  0  0  0  0  0  0  0
    6.5306   -1.4906    0.0000 C   0  0  0  0  0  0  0  0  0  0  0  0
    6.0352   -2.9064    0.0000 C   0  0  0  0  0  0  0  0  0  0  0  0
    5.2371   -4.1765    0.0000 C   0  0  0  0  0  0  0  0  0  0  0  0
    4.1765   -5.2371    0.0000 C   0  0  0  0  0  0  0  0  0  0  0  0
    2.9064   -6.0352    0.0000 C   0  0  0  0  0  0  0  0  0  0  0  0
    1.4906   -6.5306    0.0000 C   0  0  0  0  0  0  0  0  0  0  0  0
   -0.0000   -6.6986    0.0000 C   0  0  0  0  0  0  0  0  0  0  0  0
   -1.4906   -6.5306    0.0000 C   0  0  0  0  0  0  0  0  0  0  0  0
   -2.9064   -6.0352    0.0000 C   0  0  0  0  0  0  0  0  0  0  0  0
   -4.1765   -5.2371    0.0000 C   0  0  0  0  0  0  0  0  0  0  0  0
   -5.2371   -4.1765    0.0000 C   0  0  0  0  0  0  0  0  0  0  0  0
   -6.0352   -2.9064    0.0000 C   0  0  0  0  0  0  0  0  0  0  0  0
   -6.5306   -1.4906    0.0000 C   0  0  0  0  0  0  0  0  0  0  0  0
   -6.6986    0.0000    0.0000 C   0  0  0  0  0  0  0  0  0  0  0  0
   -6.5306    1.4906    0.0000 C   0  0  0  0  0  0  0  0  0  0  0  0
   -6.0352    2.9064    0.0000 C   0  0  0  0  0  0  0  0  0  0  0  0
   -5.2371    4.1765    0.0000 C   0  0  0  0  0  0  0  0  0  0  0  0
   -4.1765    5.2371    0.0000 C   0  0  0  0  0  0  0  0  0  0  0  0
   -2.9064    6.0352    0.0000 C   0  0  0  0  0  0  0  0  0  0  0  0
   -1.4906    6.5306    0.0000 C   0  0  0  0  0  0  0  0  0  0  0  0
    0.0000    6.6986    0.0000 C   0  0  0  0  0  0  0  0  0  0  0  0
    1.4906    6.5306    0.0000 C   0  0  0  0  0  0  0  0  0  0  0  0
    2.9064    6.0352    0.0000 C   0  0  0  0  0  0  0  0  0  0  0  0
    4.1765    5.2371    0.0000 C   0  0  0  0  0  0  0  0  0  0  0  0
    5.2371    4.1765    0.0000 C   0  0  0  0  0  0  0  0  0  0  0  0
    6.4099    5.1117    0.0000 N   0  0  0  0  0  0  0  0  0  0  0  0
    7.8062    4.5637    0.0000 C   0  0  0  0  0  0  0  0  0  0  0  0
    8.1836    3.1120    0.0000 N   0  0  0  0  0  0  0  0  0  0  0  0
    9.6809    3.0222    0.0000 N   0  0  0  0  0  0  0  0  0  0  0  0
   10.2289    4.4186    0.0000 N   0  0  0  0  0  0  0  0  0  0  0  0
    9.0703    5.3712    0.0000 N   0  0  0  0  0  0  0  0  0  0  0  0
    9.1600    6.8685    0.0000 C   0  0  0  0  0  0  0  0  0  0  0  0
    7.9081    7.6949    0.0000 C   0  0  0  0  0  0  0  0  0  0  0  0
    7.9978    9.1922    0.0000 C   0  0  0  0  0  0  0  0  0  0  0  0
    9.3394    9.8632    0.0000 C   0  0  0  0  0  0  0  0  0  0  0  0
    9.4291   11.3605    0.0000 C   0  0  0  0  0  0  0  0  0  0  0  0
   10.7707   12.0315    0.0000 O   0  0  0  0  0  0  0  0  0  0  0  0
    8.1772   12.1868    0.0000 N   0  0  0  0  0  0  0  0  0  0  0  0
    8.2670   13.6842    0.0000 O   0  0  0  0  0  0  0  0  0  0  0  0
   10.5913    9.0368    0.0000 C   0  0  0  0  0  0  0  0  0  0  0  0
   10.5016    7.5395    0.0000 C   0  0  0  0  0  0  0  0  0  0  0  0
    6.0352    2.9064    0.0000 C   0  0  0  0  0  0  0  0  0  0  0  0
    7.3866    3.5572    0.0000 O   0  0  0  0  0  0  0  0  0  0  0  0
    6.5306    1.4906    0.0000 N   0  0  0  0  0  0  0  0  0  0  0  0
  1  2  1  0
  2  3  1  0
  3  4  2  0
  4  5  1  0
  5  6  2  0
  6  7  1  0
  7  8  2  0
  8  9  1  0
  9 10  2  0
 10 11  1  0
 11 12  2  0
 12 13  1  0
 13 14  2  0
 14 15  1  0
 15 16  2  0
 16 17  1  0
 17 18  2  0
 18 19  1  0
 19 20  2  0
 20 21  1  0
 21 22  2  0
 22 23  1  0
 23 24  2  0
 24 25  1  0
 25 26  2  0
 26 27  1  0
 27 28  2  0
 28 29  1  0
 29 30  1  0
 30 31  2  0
 31 32  1  0
 32 33  2  0
 33 34  1  0
 34 35  1  0
 35 36  2  0
 36 37  1  0
 37 38  2  0
 38 39  1  0
 39 40  2  0
 39 41  1  0
 41 42  1  0
 38 43  1  0
 43 44  1  0
 28 45  1  0
 45 46  2  0
 45 47  1  0
 47  3  1  0
 34 30  1  0
 44 35  1  0
M  END
>  <Title>  (546) 
idAAUZgen8

$$$$

     RDKit          2D

 66 76  0  0  0  0  0  0  0  0999 V2000
   -2.5242   -4.8694    0.0000 C   0  0  0  0  0  0  0  0  0  0  0  0
   -1.3515   -3.9342    0.0000 C   0  0  0  0  0  0  0  0  0  0  0  0
   -0.0000   -4.5850    0.0000 C   0  0  0  0  0  0  0  0  0  0  0  0
    1.3515   -3.9342    0.0000 C   0  0  0  0  0  0  0  0  0  0  0  0
    1.6852   -2.4718    0.0000 C   0  0  0  0  0  0  0  0  0  0  0  0
    3.1476   -2.1380    0.0000 C   0  0  0  0  0  0  0  0  0  0  0  0
    3.7372   -0.7587    0.0000 N   0  0  0  0  0  0  0  0  0  0  0  0
    5.2311   -0.8932    0.0000 N   0  0  0  0  0  0  0  0  0  0  0  0
    5.5649   -2.3556    0.0000 N   0  0  0  0  0  0  0  0  0  0  0  0
    4.2772   -3.1249    0.0000 N   0  0  0  0  0  0  0  0  0  0  0  0
    4.1428   -4.6189    0.0000 C   0  0  0  0  0  0  0  0  0  0  0  0
    2.7817   -5.2494    0.0000 C   0  0  0  0  0  0  0  0  0  0  0  0
    2.6473   -6.7434    0.0000 C   0  0  0  0  0  0  0  0  0  0  0  0
    3.8739   -7.6068    0.0000 C   0  0  0  0  0  0  0  0  0  0  0  0
    3.7394   -9.1008    0.0000 C   0  0  0  0  0  0  0  0  0  0  0  0
    4.8690  -10.0877    0.0000 C   0  0  0  0  0  0  0  0  0  0  0  0
    4.2795  -11.4670    0.0000 N   0  0  0  0  0  0  0  0  0  0  0  0
    2.7855  -11.3325    0.0000 N   0  0  0  0  0  0  0  0  0  0  0  0
    2.4517   -9.8701    0.0000 N   0  0  0  0  0  0  0  0  0  0  0  0
    1.0724   -9.2806    0.0000 C   0  0  0  0  0  0  0  0  0  0  0  0
    0.8933   -7.7913    0.0000 C   0  0  0  0  0  0  0  0  0  0  0  0
   -0.4859   -7.2018    0.0000 C   0  0  0  0  0  0  0  0  0  0  0  0
   -1.6862   -8.1015    0.0000 C   0  0  0  0  0  0  0  0  0  0  0  0
   -3.0654   -7.5120    0.0000 C   0  0  0  0  0  0  0  0  0  0  0  0
   -3.2445   -6.0227    0.0000 C   0  0  0  0  0  0  0  0  0  0  0  0
   -4.6238   -5.4331    0.0000 C   0  0  0  0  0  0  0  0  0  0  0  0
   -5.8240   -6.3329    0.0000 C   0  0  0  0  0  0  0  0  0  0  0  0
   -5.6449   -7.8222    0.0000 C   0  0  0  0  0  0  0  0  0  0  0  0
   -4.2656   -8.4117    0.0000 C   0  0  0  0  0  0  0  0  0  0  0  0
   -1.5071   -9.5908    0.0000 C   0  0  0  0  0  0  0  0  0  0  0  0
   -0.1278  -10.1803    0.0000 C   0  0  0  0  0  0  0  0  0  0  0  0
    0.0513  -11.6696    0.0000 C   0  0  0  0  0  0  0  0  0  0  0  0
   -1.1489  -12.5693    0.0000 C   0  0  0  0  0  0  0  0  0  0  0  0
   -0.9698  -14.0586    0.0000 C   0  0  0  0  0  0  0  0  0  0  0  0
    0.4095  -14.6481    0.0000 C   0  0  0  0  0  0  0  0  0  0  0  0
    1.6097  -13.7484    0.0000 N   0  0  0  0  0  0  0  0  0  0  0  0
    1.4306  -12.2591    0.0000 C   0  0  0  0  0  0  0  0  0  0  0  0
    5.2349   -6.9763    0.0000 C   0  0  0  0  0  0  0  0  0  0  0  0
    5.3694   -5.4823    0.0000 C   0  0  0  0  0  0  0  0  0  0  0  0
    6.7304   -4.8518    0.0000 C   0  0  0  0  0  0  0  0  0  0  0  0
    7.0203   -3.3800    0.0000 C   0  0  0  0  0  0  0  0  0  0  0  0
    8.5095   -3.2009    0.0000 C   0  0  0  0  0  0  0  0  0  0  0  0
    9.1401   -4.5620    0.0000 C   0  0  0  0  0  0  0  0  0  0  0  0
   10.6118   -4.8519    0.0000 C   0  0  0  0  0  0  0  0  0  0  0  0
   11.5987   -3.7223    0.0000 O   0  0  0  0  0  0  0  0  0  0  0  0
   11.0966   -6.2714    0.0000 N   0  0  0  0  0  0  0  0  0  0  0  0
   12.5683   -6.5612    0.0000 C   0  0  0  0  0  0  0  0  0  0  0  0
   13.6679   -5.5410    0.0000 N   0  0  0  0  0  0  0  0  0  0  0  0
   14.9780   -6.2715    0.0000 N   0  0  0  0  0  0  0  0  0  0  0  0
   14.6881   -7.7432    0.0000 N   0  0  0  0  0  0  0  0  0  0  0  0
   13.1989   -7.9223    0.0000 N   0  0  0  0  0  0  0  0  0  0  0  0
   12.4684   -9.2324    0.0000 C   0  0  0  0  0  0  0  0  0  0  0  0
   10.9686   -9.2548    0.0000 C   0  0  0  0  0  0  0  0  0  0  0  0
   10.2381  -10.5649    0.0000 C   0  0  0  0  0  0  0  0  0  0  0  0
   11.0074  -11.8526    0.0000 C   0  0  0  0  0  0  0  0  0  0  0  0
   12.5073  -11.8302    0.0000 C   0  0  0  0  0  0  0  0  0  0  0  0
   13.2377  -10.5201    0.0000 C   0  0  0  0  0  0  0  0  0  0  0  0
    8.0405   -5.5822    0.0000 C   0  0  0  0  0  0  0  0  0  0  0  0
    8.2196   -7.0715    0.0000 O   0  0  0  0  0  0  0  0  0  0  0  0
    0.7500   -1.2990    0.0000 C   0  0  0  0  0  0  0  0  0  0  0  0
    1.5000    0.0000    0.0000 C   0  0  0  0  0  0  0  0  0  0  0  0
    0.7500    1.2990    0.0000 C   0  0  0  0  0  0  0  0  0  0  0  0
   -0.7500    1.2990    0.0000 C   0  0  0  0  0  0  0  0  0  0  0  0
   -1.5000    0.0000    0.0000 C   0  0  0  0  0  0  0  0  0  0  0  0
   -0.7500   -1.2990    0.0000 C   0  0  0  0  0  0  0  0  0  0  0  0
   -1.6852   -2.4718    0.0000 O   0  0  0  0  0  0  0  0  0  0  0  0
  1  2  1  0
  2  3  2  0
  3  4  1  0
  4  5  2  0
  5  6  1  0
  6  7  2  0
  7  8  1  0
  8  9  2  0
  9 10  1  0
 10 11  1  0
 11 12  2  0
 12 13  1  0
 13 14  2  0
 14 15  1  0
 15 16  2  0
 16 17  1  0
 17 18  2  0
 18 19  1  0
 19 20  1  0
 20 21  2  0
 21 22  1  0
 22 23  2  0
 23 24  1  0
 24 25  2  0
 25 26  1  0
 26 27  2  0
 27 28  1  0
 28 29  2  0
 23 30  1  0
 30 31  2  0
 31 32  1  0
 32 33  2  0
 33 34  1  0
 34 35  2  0
 35 36  1  0
 36 37  2  0
 14 38  1  0
 38 39  2  0
 39 40  1  0
 40 41  2  0
 41 42  1  0
 42 43  2  0
 43 44  1  0
 44 45  2  0
 44 46  1  0
 46 47  1  0
 47 48  2  0
 48 49  1  0
 49 50  2  0
 50 51  1  0
 51 52  1  0
 52 53  2  0
 53 54  1  0
 54 55  2  0
 55 56  1  0
 56 57  2  0
 43 58  1  0
 58 59  2  0
  5 60  1  0
 60 61  2  0
 61 62  1  0
 62 63  2  0
 63 64  1  0
 64 65  2  0
 65 66  1  0
 66  2  1  0
 10  6  1  0
 39 11  1  0
 58 40  1  0
 65 60  1  0
 19 15  1  0
 31 20  1  0
 37 32  1  0
 51 47  1  0
 57 52  1  0
 29 24  1  0
M  END
>  <Title>  (547) 
idAAVAgen8

$$$$

     RDKit          2D

 36 41  0  0  0  0  0  0  0  0999 V2000
    3.0000    0.0000    0.0000 C   0  0  0  0  0  0  0  0  0  0  0  0
    1.5000    0.0000    0.0000 C   0  0  0  0  0  0  0  0  0  0  0  0
    0.7500    1.2990    0.0000 C   0  0  0  0  0  0  0  0  0  0  0  0
   -0.7500    1.2990    0.0000 C   0  0  0  0  0  0  0  0  0  0  0  0
   -1.5000    0.0000    0.0000 C   0  0  0  0  0  0  0  0  0  0  0  0
   -3.0000    0.0000    0.0000 C   0  0  0  0  0  0  0  0  0  0  0  0
   -3.8817   -1.2135    0.0000 N   0  0  0  0  0  0  0  0  0  0  0  0
   -5.3083   -0.7500    0.0000 N   0  0  0  0  0  0  0  0  0  0  0  0
   -5.3083    0.7500    0.0000 N   0  0  0  0  0  0  0  0  0  0  0  0
   -3.8817    1.2135    0.0000 N   0  0  0  0  0  0  0  0  0  0  0  0
   -3.4182    2.6401    0.0000 C   0  0  0  0  0  0  0  0  0  0  0  0
   -1.9509    2.9520    0.0000 C   0  0  0  0  0  0  0  0  0  0  0  0
   -1.4874    4.3786    0.0000 C   0  0  0  0  0  0  0  0  0  0  0  0
   -2.4911    5.4933    0.0000 C   0  0  0  0  0  0  0  0  0  0  0  0
   -3.9583    5.1814    0.0000 C   0  0  0  0  0  0  0  0  0  0  0  0
   -4.4218    3.7548    0.0000 C   0  0  0  0  0  0  0  0  0  0  0  0
   -5.8891    3.4430    0.0000 C   0  0  0  0  0  0  0  0  0  0  0  0
   -6.4992    2.0726    0.0000 C   0  0  0  0  0  0  0  0  0  0  0  0
   -7.9910    2.2294    0.0000 C   0  0  0  0  0  0  0  0  0  0  0  0
   -8.3028    3.6967    0.0000 C   0  0  0  0  0  0  0  0  0  0  0  0
   -9.6731    4.3068    0.0000 C   0  0  0  0  0  0  0  0  0  0  0  0
  -10.9722    3.5568    0.0000 N   0  0  0  0  0  0  0  0  0  0  0  0
  -12.0869    4.5605    0.0000 N   0  0  0  0  0  0  0  0  0  0  0  0
  -11.4768    5.9308    0.0000 N   0  0  0  0  0  0  0  0  0  0  0  0
   -9.9850    5.7740    0.0000 N   0  0  0  0  0  0  0  0  0  0  0  0
   -8.9813    6.8887    0.0000 C   0  0  0  0  0  0  0  0  0  0  0  0
   -7.5141    6.5768    0.0000 C   0  0  0  0  0  0  0  0  0  0  0  0
   -6.5104    7.6915    0.0000 C   0  0  0  0  0  0  0  0  0  0  0  0
   -6.9739    9.1181    0.0000 N   0  0  0  0  0  0  0  0  0  0  0  0
   -8.4411    9.4300    0.0000 N   0  0  0  0  0  0  0  0  0  0  0  0
   -9.4448    8.3153    0.0000 C   0  0  0  0  0  0  0  0  0  0  0  0
   -7.0038    4.4467    0.0000 C   0  0  0  0  0  0  0  0  0  0  0  0
   -6.8470    5.9384    0.0000 O   0  0  0  0  0  0  0  0  0  0  0  0
   -0.7500   -1.2990    0.0000 C   0  0  0  0  0  0  0  0  0  0  0  0
   -1.5000   -2.5981    0.0000 O   0  0  0  0  0  0  0  0  0  0  0  0
    0.7500   -1.2990    0.0000 N   0  0  0  0  0  0  0  0  0  0  0  0
  1  2  1  0
  2  3  2  0
  3  4  1  0
  4  5  2  0
  5  6  1  0
  6  7  2  0
  7  8  1  0
  8  9  2  0
  9 10  1  0
 10 11  1  0
 11 12  1  0
 12 13  1  0
 13 14  1  0
 14 15  1  0
 15 16  1  0
 16 17  1  0
 17 18  2  0
 18 19  1  0
 19 20  2  0
 20 21  1  0
 21 22  2  0
 22 23  1  0
 23 24  2  0
 24 25  1  0
 25 26  1  0
 26 27  2  0
 27 28  1  0
 28 29  2  0
 29 30  1  0
 30 31  2  0
 20 32  1  0
 32 33  2  0
  5 34  1  0
 34 35  2  0
 34 36  1  0
 36  2  1  0
 10  6  1  0
 16 11  1  0
 32 17  1  0
 25 21  1  0
 31 26  1  0
M  END
>  <Title>  (548) 
idAAVBgen8

$$$$

     RDKit          2D

 25 26  0  0  0  0  0  0  0  0999 V2000
   -6.1378   -0.2015    0.0000 C   0  0  0  0  0  0  0  0  0  0  0  0
   -4.6399   -0.1230    0.0000 O   0  0  0  0  0  0  0  0  0  0  0  0
   -3.9589    1.2135    0.0000 C   0  0  0  0  0  0  0  0  0  0  0  0
   -5.1724    2.0952    0.0000 C   0  0  0  0  0  0  0  0  0  0  0  0
   -6.0541    3.3087    0.0000 C   0  0  0  0  0  0  0  0  0  0  0  0
   -6.5176    4.7353    0.0000 C   0  0  0  0  0  0  0  0  0  0  0  0
   -6.5176    6.2353    0.0000 C   0  0  0  0  0  0  0  0  0  0  0  0
   -6.0541    7.6619    0.0000 C   0  0  0  0  0  0  0  0  0  0  0  0
   -5.1724    8.8754    0.0000 C   0  0  0  0  0  0  0  0  0  0  0  0
   -3.9589    9.7571    0.0000 C   0  0  0  0  0  0  0  0  0  0  0  0
   -2.5323   10.2206    0.0000 C   0  0  0  0  0  0  0  0  0  0  0  0
   -1.0323   10.2206    0.0000 C   0  0  0  0  0  0  0  0  0  0  0  0
    0.3943    9.7571    0.0000 C   0  0  0  0  0  0  0  0  0  0  0  0
    1.6078    8.8754    0.0000 C   0  0  0  0  0  0  0  0  0  0  0  0
    2.4895    7.6619    0.0000 C   0  0  0  0  0  0  0  0  0  0  0  0
    2.9530    6.2353    0.0000 C   0  0  0  0  0  0  0  0  0  0  0  0
    2.9530    4.7353    0.0000 C   0  0  0  0  0  0  0  0  0  0  0  0
    2.4895    3.3087    0.0000 C   0  0  0  0  0  0  0  0  0  0  0  0
    1.6078    2.0952    0.0000 C   0  0  0  0  0  0  0  0  0  0  0  0
    0.3943    1.2135    0.0000 C   0  0  0  0  0  0  0  0  0  0  0  0
    1.2760    0.0000    0.0000 C   0  0  0  0  0  0  0  0  0  0  0  0
    0.3943   -1.2135    0.0000 C   0  0  0  0  0  0  0  0  0  0  0  0
   -1.0323   -0.7500    0.0000 N   0  0  0  0  0  0  0  0  0  0  0  0
   -1.0323    0.7500    0.0000 C   0  0  0  0  0  0  0  0  0  0  0  0
   -2.5323    0.7500    0.0000 C   0  0  0  0  0  0  0  0  0  0  0  0
  1  2  1  0
  2  3  1  0
  3  4  2  0
  4  5  1  0
  5  6  2  0
  6  7  1  0
  7  8  2  0
  8  9  1  0
  9 10  2  0
 10 11  1  0
 11 12  2  0
 12 13  1  0
 13 14  2  0
 14 15  1  0
 15 16  2  0
 16 17  1  0
 17 18  2  0
 18 19  1  0
 19 20  2  0
 20 21  1  0
 21 22  1  0
 22 23  1  0
 23 24  2  0
 24 25  1  0
 25  3  1  0
 24 20  1  0
M  END
>  <Title>  (549) 
idAAVCgen8

$$$$

     RDKit          2D

 40 44  0  0  0  0  0  0  0  0999 V2000
    9.1405   -3.7127    0.0000 C   0  0  0  0  0  0  0  0  0  0  0  0
    8.3142   -2.4608    0.0000 C   0  0  0  0  0  0  0  0  0  0  0  0
    8.9851   -1.1193    0.0000 C   0  0  0  0  0  0  0  0  0  0  0  0
    8.1588    0.1326    0.0000 C   0  0  0  0  0  0  0  0  0  0  0  0
    6.6615    0.0429    0.0000 C   0  0  0  0  0  0  0  0  0  0  0  0
    5.8351    1.2947    0.0000 C   0  0  0  0  0  0  0  0  0  0  0  0
    6.5061    2.6363    0.0000 O   0  0  0  0  0  0  0  0  0  0  0  0
    4.3378    1.2050    0.0000 N   0  0  0  0  0  0  0  0  0  0  0  0
    3.5115    2.4569    0.0000 C   0  0  0  0  0  0  0  0  0  0  0  0
    4.0385    3.8613    0.0000 N   0  0  0  0  0  0  0  0  0  0  0  0
    2.8658    4.7965    0.0000 N   0  0  0  0  0  0  0  0  0  0  0  0
    1.6139    3.9701    0.0000 N   0  0  0  0  0  0  0  0  0  0  0  0
    2.0130    2.5242    0.0000 N   0  0  0  0  0  0  0  0  0  0  0  0
    1.0777    1.3515    0.0000 C   0  0  0  0  0  0  0  0  0  0  0  0
    1.7286    0.0000    0.0000 C   0  0  0  0  0  0  0  0  0  0  0  0
    1.0777   -1.3515    0.0000 C   0  0  0  0  0  0  0  0  0  0  0  0
   -0.3846   -1.6852    0.0000 N   0  0  0  0  0  0  0  0  0  0  0  0
   -1.5574   -0.7500    0.0000 N   0  0  0  0  0  0  0  0  0  0  0  0
   -1.5574    0.7500    0.0000 N   0  0  0  0  0  0  0  0  0  0  0  0
   -0.3846    1.6852    0.0000 N   0  0  0  0  0  0  0  0  0  0  0  0
   -0.7184    3.1476    0.0000 C   0  0  0  0  0  0  0  0  0  0  0  0
    0.2685    4.2772    0.0000 C   0  0  0  0  0  0  0  0  0  0  0  0
   -0.5009    5.5649    0.0000 C   0  0  0  0  0  0  0  0  0  0  0  0
   -1.9633    5.2311    0.0000 C   0  0  0  0  0  0  0  0  0  0  0  0
   -3.0929    6.2180    0.0000 C   0  0  0  0  0  0  0  0  0  0  0  0
   -4.5124    5.7332    0.0000 C   0  0  0  0  0  0  0  0  0  0  0  0
   -5.6420    6.7201    0.0000 C   0  0  0  0  0  0  0  0  0  0  0  0
   -5.3521    8.1918    0.0000 C   0  0  0  0  0  0  0  0  0  0  0  0
   -6.4817    9.1788    0.0000 C   0  0  0  0  0  0  0  0  0  0  0  0
   -6.1918   10.6505    0.0000 O   0  0  0  0  0  0  0  0  0  0  0  0
   -7.9012    8.6939    0.0000 N   0  0  0  0  0  0  0  0  0  0  0  0
   -9.0308    9.6809    0.0000 O   0  0  0  0  0  0  0  0  0  0  0  0
   -3.9326    8.6767    0.0000 N   0  0  0  0  0  0  0  0  0  0  0  0
   -2.8030    7.6898    0.0000 C   0  0  0  0  0  0  0  0  0  0  0  0
   -1.3835    8.1746    0.0000 O   0  0  0  0  0  0  0  0  0  0  0  0
   -2.0977    3.7372    0.0000 C   0  0  0  0  0  0  0  0  0  0  0  0
   -3.3854    2.9678    0.0000 O   0  0  0  0  0  0  0  0  0  0  0  0
    5.9905   -1.2987    0.0000 N   0  0  0  0  0  0  0  0  0  0  0  0
    6.8169   -2.5505    0.0000 C   0  0  0  0  0  0  0  0  0  0  0  0
    6.1459   -3.8921    0.0000 O   0  0  0  0  0  0  0  0  0  0  0  0
  1  2  1  0
  2  3  2  0
  3  4  1  0
  4  5  2  0
  5  6  1  0
  6  7  2  0
  6  8  1  0
  8  9  1  0
  9 10  2  0
 10 11  1  0
 11 12  2  0
 12 13  1  0
 13 14  1  0
 14 15  2  0
 15 16  1  0
 16 17  2  0
 17 18  1  0
 18 19  2  0
 19 20  1  0
 20 21  1  0
 21 22  2  0
 22 23  1  0
 23 24  2  0
 24 25  1  0
 25 26  2  0
 26 27  1  0
 27 28  2  0
 28 29  1  0
 29 30  2  0
 29 31  1  0
 31 32  1  0
 28 33  1  0
 33 34  1  0
 34 35  2  0
 24 36  1  0
 36 37  2  0
  5 38  1  0
 38 39  1  0
 39 40  2  0
 39  2  1  0
 13  9  1  0
 20 14  1  0
 36 21  1  0
 34 25  1  0
M  END
>  <Title>  (550) 
idAAVDgen8

$$$$

     RDKit          2D

 22 22  0  0  0  0  0  0  0  0999 V2000
    7.0443   -1.2990    0.0000 C   0  0  0  0  0  0  0  0  0  0  0  0
    6.2943    0.0000    0.0000 O   0  0  0  0  0  0  0  0  0  0  0  0
    4.7943    0.0000    0.0000 C   0  0  0  0  0  0  0  0  0  0  0  0
    4.5597   -1.4815    0.0000 C   0  0  0  0  0  0  0  0  0  0  0  0
    3.8787   -2.8180    0.0000 C   0  0  0  0  0  0  0  0  0  0  0  0
    2.8180   -3.8787    0.0000 C   0  0  0  0  0  0  0  0  0  0  0  0
    1.4815   -4.5597    0.0000 C   0  0  0  0  0  0  0  0  0  0  0  0
   -0.0000   -4.7943    0.0000 C   0  0  0  0  0  0  0  0  0  0  0  0
   -1.4815   -4.5597    0.0000 C   0  0  0  0  0  0  0  0  0  0  0  0
   -2.8180   -3.8787    0.0000 C   0  0  0  0  0  0  0  0  0  0  0  0
   -3.8787   -2.8180    0.0000 C   0  0  0  0  0  0  0  0  0  0  0  0
   -4.5597   -1.4815    0.0000 C   0  0  0  0  0  0  0  0  0  0  0  0
   -4.7943    0.0000    0.0000 C   0  0  0  0  0  0  0  0  0  0  0  0
   -4.5597    1.4815    0.0000 C   0  0  0  0  0  0  0  0  0  0  0  0
   -3.8787    2.8180    0.0000 C   0  0  0  0  0  0  0  0  0  0  0  0
   -2.8180    3.8787    0.0000 C   0  0  0  0  0  0  0  0  0  0  0  0
   -1.4815    4.5597    0.0000 C   0  0  0  0  0  0  0  0  0  0  0  0
    0.0000    4.7943    0.0000 C   0  0  0  0  0  0  0  0  0  0  0  0
    1.4815    4.5597    0.0000 C   0  0  0  0  0  0  0  0  0  0  0  0
    2.8180    3.8787    0.0000 C   0  0  0  0  0  0  0  0  0  0  0  0
    3.8787    2.8180    0.0000 C   0  0  0  0  0  0  0  0  0  0  0  0
    4.5597    1.4815    0.0000 N   0  0  0  0  0  0  0  0  0  0  0  0
  1  2  1  0
  2  3  1  0
  3  4  2  0
  4  5  1  0
  5  6  2  0
  6  7  1  0
  7  8  2  0
  8  9  1  0
  9 10  2  0
 10 11  1  0
 11 12  2  0
 12 13  1  0
 13 14  2  0
 14 15  1  0
 15 16  2  0
 16 17  1  0
 17 18  2  0
 18 19  1  0
 19 20  2  0
 20 21  1  0
 21 22  1  0
 22  3  1  0
M  END
>  <Title>  (551) 
idAAVEgen8

$$$$

     RDKit          2D

 51 58  0  0  0  0  0  0  0  0999 V2000
    3.0000    0.0000    0.0000 C   0  0  0  0  0  0  0  0  0  0  0  0
    1.5000    0.0000    0.0000 C   0  0  0  0  0  0  0  0  0  0  0  0
    0.7500   -1.2990    0.0000 C   0  0  0  0  0  0  0  0  0  0  0  0
   -0.7500   -1.2990    0.0000 C   0  0  0  0  0  0  0  0  0  0  0  0
   -1.5000    0.0000    0.0000 C   0  0  0  0  0  0  0  0  0  0  0  0
   -3.0000    0.0000    0.0000 C   0  0  0  0  0  0  0  0  0  0  0  0
   -3.7500   -1.2990    0.0000 O   0  0  0  0  0  0  0  0  0  0  0  0
   -3.7500    1.2990    0.0000 N   0  0  0  0  0  0  0  0  0  0  0  0
   -5.2500    1.2990    0.0000 C   0  0  0  0  0  0  0  0  0  0  0  0
   -6.1317    0.0855    0.0000 N   0  0  0  0  0  0  0  0  0  0  0  0
   -7.5583    0.5490    0.0000 N   0  0  0  0  0  0  0  0  0  0  0  0
   -7.5583    2.0490    0.0000 N   0  0  0  0  0  0  0  0  0  0  0  0
   -6.1317    2.5126    0.0000 N   0  0  0  0  0  0  0  0  0  0  0  0
   -5.6682    3.9391    0.0000 C   0  0  0  0  0  0  0  0  0  0  0  0
   -4.2009    4.2510    0.0000 C   0  0  0  0  0  0  0  0  0  0  0  0
   -3.7374    5.6776    0.0000 C   0  0  0  0  0  0  0  0  0  0  0  0
   -4.7411    6.7923    0.0000 C   0  0  0  0  0  0  0  0  0  0  0  0
   -4.2776    8.2189    0.0000 C   0  0  0  0  0  0  0  0  0  0  0  0
   -5.1593    9.4324    0.0000 N   0  0  0  0  0  0  0  0  0  0  0  0
   -4.2776   10.6460    0.0000 N   0  0  0  0  0  0  0  0  0  0  0  0
   -2.8510   10.1824    0.0000 N   0  0  0  0  0  0  0  0  0  0  0  0
   -2.8510    8.6824    0.0000 N   0  0  0  0  0  0  0  0  0  0  0  0
   -1.6375    7.8008    0.0000 C   0  0  0  0  0  0  0  0  0  0  0  0
   -1.6375    6.3008    0.0000 N   0  0  0  0  0  0  0  0  0  0  0  0
   -0.2109    5.8372    0.0000 N   0  0  0  0  0  0  0  0  0  0  0  0
    0.6708    7.0508    0.0000 N   0  0  0  0  0  0  0  0  0  0  0  0
   -0.2109    8.2643    0.0000 N   0  0  0  0  0  0  0  0  0  0  0  0
    0.2526    9.6909    0.0000 C   0  0  0  0  0  0  0  0  0  0  0  0
   -0.7511   10.8056    0.0000 C   0  0  0  0  0  0  0  0  0  0  0  0
   -0.2875   12.2322    0.0000 C   0  0  0  0  0  0  0  0  0  0  0  0
    1.1797   12.5440    0.0000 C   0  0  0  0  0  0  0  0  0  0  0  0
    2.1834   11.4293    0.0000 C   0  0  0  0  0  0  0  0  0  0  0  0
    1.7199   10.0027    0.0000 C   0  0  0  0  0  0  0  0  0  0  0  0
   -6.2083    6.4805    0.0000 N   0  0  0  0  0  0  0  0  0  0  0  0
   -6.6718    5.0539    0.0000 C   0  0  0  0  0  0  0  0  0  0  0  0
   -8.1391    4.7420    0.0000 C   0  0  0  0  0  0  0  0  0  0  0  0
   -8.6026    3.3154    0.0000 C   0  0  0  0  0  0  0  0  0  0  0  0
  -10.0698    3.0035    0.0000 C   0  0  0  0  0  0  0  0  0  0  0  0
  -11.0735    4.1183    0.0000 C   0  0  0  0  0  0  0  0  0  0  0  0
  -10.6100    5.5448    0.0000 C   0  0  0  0  0  0  0  0  0  0  0  0
   -9.1428    5.8567    0.0000 C   0  0  0  0  0  0  0  0  0  0  0  0
   -8.6792    7.2833    0.0000 C   0  0  0  0  0  0  0  0  0  0  0  0
   -7.2120    7.5952    0.0000 C   0  0  0  0  0  0  0  0  0  0  0  0
   -6.7485    9.0218    0.0000 C   0  0  0  0  0  0  0  0  0  0  0  0
   -7.7522   10.1365    0.0000 C   0  0  0  0  0  0  0  0  0  0  0  0
   -7.2887   11.5631    0.0000 C   0  0  0  0  0  0  0  0  0  0  0  0
   -9.2194    9.8246    0.0000 C   0  0  0  0  0  0  0  0  0  0  0  0
  -10.2231   10.9393    0.0000 O   0  0  0  0  0  0  0  0  0  0  0  0
   -9.6829    8.3980    0.0000 N   0  0  0  0  0  0  0  0  0  0  0  0
   -0.7500    1.2990    0.0000 N   0  0  0  0  0  0  0  0  0  0  0  0
    0.7500    1.2990    0.0000 N   0  0  0  0  0  0  0  0  0  0  0  0
  1  2  1  0
  2  3  2  0
  3  4  1  0
  4  5  2  0
  5  6  1  0
  6  7  2  0
  6  8  1  0
  8  9  1  0
  9 10  2  0
 10 11  1  0
 11 12  2  0
 12 13  1  0
 13 14  1  0
 14 15  2  0
 15 16  1  0
 16 17  2  0
 17 18  1  0
 18 19  2  0
 19 20  1  0
 20 21  2  0
 21 22  1  0
 22 23  1  0
 23 24  2  0
 24 25  1  0
 25 26  2  0
 26 27  1  0
 27 28  1  0
 28 29  2  0
 29 30  1  0
 30 31  2  0
 31 32  1  0
 32 33  2  0
 17 34  1  0
 34 35  2  0
 35 36  1  0
 36 37  2  0
 37 38  1  0
 38 39  2  0
 39 40  1  0
 40 41  2  0
 41 42  1  0
 42 43  2  0
 43 44  1  0
 44 45  2  0
 45 46  1  0
 45 47  1  0
 47 48  2  0
 47 49  1  0
  5 50  1  0
 50 51  2  0
 51  2  1  0
 13  9  1  0
 35 14  1  0
 41 36  1  0
 49 42  1  0
 22 18  1  0
 27 23  1  0
 33 28  1  0
M  END
>  <Title>  (552) 
idAAVFgen8

$$$$

     RDKit          2D

 37 42  0  0  0  0  0  0  0  0999 V2000
  -14.9962    5.8473    0.0000 C   0  0  0  0  0  0  0  0  0  0  0  0
  -13.7827    4.9656    0.0000 C   0  0  0  0  0  0  0  0  0  0  0  0
  -13.9395    3.4739    0.0000 C   0  0  0  0  0  0  0  0  0  0  0  0
  -12.7260    2.5922    0.0000 C   0  0  0  0  0  0  0  0  0  0  0  0
  -11.3556    3.2023    0.0000 C   0  0  0  0  0  0  0  0  0  0  0  0
  -10.1421    2.3206    0.0000 C   0  0  0  0  0  0  0  0  0  0  0  0
  -10.2989    0.8288    0.0000 O   0  0  0  0  0  0  0  0  0  0  0  0
   -8.7718    2.9307    0.0000 N   0  0  0  0  0  0  0  0  0  0  0  0
   -7.5583    2.0490    0.0000 C   0  0  0  0  0  0  0  0  0  0  0  0
   -7.5583    0.5490    0.0000 N   0  0  0  0  0  0  0  0  0  0  0  0
   -6.1317    0.0855    0.0000 N   0  0  0  0  0  0  0  0  0  0  0  0
   -5.2500    1.2990    0.0000 N   0  0  0  0  0  0  0  0  0  0  0  0
   -6.1317    2.5126    0.0000 N   0  0  0  0  0  0  0  0  0  0  0  0
   -5.6682    3.9391    0.0000 C   0  0  0  0  0  0  0  0  0  0  0  0
   -6.5498    5.1527    0.0000 N   0  0  0  0  0  0  0  0  0  0  0  0
   -5.6682    6.3662    0.0000 N   0  0  0  0  0  0  0  0  0  0  0  0
   -4.2416    5.9027    0.0000 N   0  0  0  0  0  0  0  0  0  0  0  0
   -4.2416    4.4027    0.0000 N   0  0  0  0  0  0  0  0  0  0  0  0
   -3.0280    3.5210    0.0000 C   0  0  0  0  0  0  0  0  0  0  0  0
   -3.1848    2.0292    0.0000 C   0  0  0  0  0  0  0  0  0  0  0  0
   -1.9713    1.1475    0.0000 C   0  0  0  0  0  0  0  0  0  0  0  0
   -0.6010    1.7576    0.0000 C   0  0  0  0  0  0  0  0  0  0  0  0
    0.6125    0.8760    0.0000 C   0  0  0  0  0  0  0  0  0  0  0  0
    0.6125   -0.6240    0.0000 N   0  0  0  0  0  0  0  0  0  0  0  0
    2.0391   -1.0876    0.0000 N   0  0  0  0  0  0  0  0  0  0  0  0
    2.9208    0.1260    0.0000 N   0  0  0  0  0  0  0  0  0  0  0  0
    2.0391    1.3395    0.0000 N   0  0  0  0  0  0  0  0  0  0  0  0
    2.5026    2.7661    0.0000 C   0  0  0  0  0  0  0  0  0  0  0  0
    1.4989    3.8808    0.0000 C   0  0  0  0  0  0  0  0  0  0  0  0
    1.9625    5.3074    0.0000 C   0  0  0  0  0  0  0  0  0  0  0  0
    3.4297    5.6192    0.0000 C   0  0  0  0  0  0  0  0  0  0  0  0
    4.4334    4.5045    0.0000 C   0  0  0  0  0  0  0  0  0  0  0  0
    3.9699    3.0779    0.0000 C   0  0  0  0  0  0  0  0  0  0  0  0
   -0.4442    3.2494    0.0000 C   0  0  0  0  0  0  0  0  0  0  0  0
   -1.6577    4.1311    0.0000 C   0  0  0  0  0  0  0  0  0  0  0  0
  -11.1988    4.6941    0.0000 C   0  0  0  0  0  0  0  0  0  0  0  0
  -12.4124    5.5757    0.0000 C   0  0  0  0  0  0  0  0  0  0  0  0
  1  2  1  0
  2  3  2  0
  3  4  1  0
  4  5  2  0
  5  6  1  0
  6  7  2  0
  6  8  1  0
  8  9  1  0
  9 10  2  0
 10 11  1  0
 11 12  2  0
 12 13  1  0
 13 14  1  0
 14 15  2  0
 15 16  1  0
 16 17  2  0
 17 18  1  0
 18 19  1  0
 19 20  2  0
 20 21  1  0
 21 22  2  0
 22 23  1  0
 23 24  2  0
 24 25  1  0
 25 26  2  0
 26 27  1  0
 27 28  1  0
 28 29  2  0
 29 30  1  0
 30 31  2  0
 31 32  1  0
 32 33  2  0
 22 34  1  0
 34 35  2  0
  5 36  1  0
 36 37  2  0
 37  2  1  0
 13  9  1  0
 18 14  1  0
 35 19  1  0
 27 23  1  0
 33 28  1  0
M  END
>  <Title>  (553) 
idAAVGgen8

$$$$

     RDKit          2D

 61 70  0  0  0  0  0  0  0  0999 V2000
    3.0000    0.0000    0.0000 C   0  0  0  0  0  0  0  0  0  0  0  0
    1.5000    0.0000    0.0000 C   0  0  0  0  0  0  0  0  0  0  0  0
    0.7500   -1.2990    0.0000 C   0  0  0  0  0  0  0  0  0  0  0  0
   -0.7500   -1.2990    0.0000 C   0  0  0  0  0  0  0  0  0  0  0  0
   -1.5000    0.0000    0.0000 C   0  0  0  0  0  0  0  0  0  0  0  0
   -3.0000    0.0000    0.0000 C   0  0  0  0  0  0  0  0  0  0  0  0
   -3.7500   -1.2990    0.0000 O   0  0  0  0  0  0  0  0  0  0  0  0
   -3.7500    1.2990    0.0000 N   0  0  0  0  0  0  0  0  0  0  0  0
   -5.2500    1.2990    0.0000 C   0  0  0  0  0  0  0  0  0  0  0  0
   -6.1317    0.0855    0.0000 N   0  0  0  0  0  0  0  0  0  0  0  0
   -7.5583    0.5490    0.0000 N   0  0  0  0  0  0  0  0  0  0  0  0
   -7.5583    2.0490    0.0000 N   0  0  0  0  0  0  0  0  0  0  0  0
   -6.1317    2.5126    0.0000 N   0  0  0  0  0  0  0  0  0  0  0  0
   -5.6682    3.9391    0.0000 C   0  0  0  0  0  0  0  0  0  0  0  0
   -4.2009    4.2510    0.0000 C   0  0  0  0  0  0  0  0  0  0  0  0
   -3.7374    5.6776    0.0000 C   0  0  0  0  0  0  0  0  0  0  0  0
   -4.7411    6.7923    0.0000 C   0  0  0  0  0  0  0  0  0  0  0  0
   -4.2776    8.2189    0.0000 C   0  0  0  0  0  0  0  0  0  0  0  0
   -2.8104    8.5308    0.0000 C   0  0  0  0  0  0  0  0  0  0  0  0
   -2.3468    9.9574    0.0000 C   0  0  0  0  0  0  0  0  0  0  0  0
   -3.3505   11.0721    0.0000 C   0  0  0  0  0  0  0  0  0  0  0  0
   -2.8870   12.4987    0.0000 C   0  0  0  0  0  0  0  0  0  0  0  0
   -1.4198   12.8105    0.0000 C   0  0  0  0  0  0  0  0  0  0  0  0
   -0.9563   14.2371    0.0000 C   0  0  0  0  0  0  0  0  0  0  0  0
   -1.9599   15.3518    0.0000 C   0  0  0  0  0  0  0  0  0  0  0  0
   -3.4272   15.0400    0.0000 C   0  0  0  0  0  0  0  0  0  0  0  0
   -3.8907   13.6134    0.0000 C   0  0  0  0  0  0  0  0  0  0  0  0
   -4.8177   10.7602    0.0000 C   0  0  0  0  0  0  0  0  0  0  0  0
   -5.2813    9.3336    0.0000 C   0  0  0  0  0  0  0  0  0  0  0  0
   -6.2083    6.4805    0.0000 C   0  0  0  0  0  0  0  0  0  0  0  0
   -6.6718    5.0539    0.0000 C   0  0  0  0  0  0  0  0  0  0  0  0
   -8.1391    4.7420    0.0000 N   0  0  0  0  0  0  0  0  0  0  0  0
   -8.6026    3.3154    0.0000 N   0  0  0  0  0  0  0  0  0  0  0  0
  -10.0698    3.0035    0.0000 N   0  0  0  0  0  0  0  0  0  0  0  0
  -11.0735    4.1183    0.0000 N   0  0  0  0  0  0  0  0  0  0  0  0
  -10.6100    5.5448    0.0000 N   0  0  0  0  0  0  0  0  0  0  0  0
   -9.1428    5.8567    0.0000 N   0  0  0  0  0  0  0  0  0  0  0  0
   -8.6792    7.2833    0.0000 C   0  0  0  0  0  0  0  0  0  0  0  0
   -7.2527    7.7468    0.0000 N   0  0  0  0  0  0  0  0  0  0  0  0
   -7.2527    9.2468    0.0000 N   0  0  0  0  0  0  0  0  0  0  0  0
   -8.6792    9.7104    0.0000 N   0  0  0  0  0  0  0  0  0  0  0  0
   -9.5609    8.4968    0.0000 N   0  0  0  0  0  0  0  0  0  0  0  0
  -11.0609    8.4968    0.0000 C   0  0  0  0  0  0  0  0  0  0  0  0
  -11.8109    7.1978    0.0000 C   0  0  0  0  0  0  0  0  0  0  0  0
  -13.3109    7.1978    0.0000 C   0  0  0  0  0  0  0  0  0  0  0  0
  -14.0609    8.4968    0.0000 C   0  0  0  0  0  0  0  0  0  0  0  0
  -15.5609    8.4968    0.0000 C   0  0  0  0  0  0  0  0  0  0  0  0
  -16.4426    9.7104    0.0000 N   0  0  0  0  0  0  0  0  0  0  0  0
  -17.8692    9.2468    0.0000 N   0  0  0  0  0  0  0  0  0  0  0  0
  -17.8692    7.7468    0.0000 N   0  0  0  0  0  0  0  0  0  0  0  0
  -16.4426    7.2833    0.0000 N   0  0  0  0  0  0  0  0  0  0  0  0
  -15.9791    5.8567    0.0000 C   0  0  0  0  0  0  0  0  0  0  0  0
  -14.5118    5.5448    0.0000 C   0  0  0  0  0  0  0  0  0  0  0  0
  -14.0483    4.1183    0.0000 C   0  0  0  0  0  0  0  0  0  0  0  0
  -15.0520    3.0035    0.0000 C   0  0  0  0  0  0  0  0  0  0  0  0
  -16.5192    3.3154    0.0000 C   0  0  0  0  0  0  0  0  0  0  0  0
  -16.9828    4.7420    0.0000 C   0  0  0  0  0  0  0  0  0  0  0  0
  -13.3109    9.7959    0.0000 C   0  0  0  0  0  0  0  0  0  0  0  0
  -11.8109    9.7959    0.0000 C   0  0  0  0  0  0  0  0  0  0  0  0
   -0.7500    1.2990    0.0000 C   0  0  0  0  0  0  0  0  0  0  0  0
    0.7500    1.2990    0.0000 C   0  0  0  0  0  0  0  0  0  0  0  0
  1  2  1  0
  2  3  2  0
  3  4  1  0
  4  5  2  0
  5  6  1  0
  6  7  2  0
  6  8  1  0
  8  9  1  0
  9 10  2  0
 10 11  1  0
 11 12  2  0
 12 13  1  0
 13 14  1  0
 14 15  2  0
 15 16  1  0
 16 17  2  0
 17 18  1  0
 18 19  2  0
 19 20  1  0
 20 21  2  0
 21 22  1  0
 22 23  2  0
 23 24  1  0
 24 25  2  0
 25 26  1  0
 26 27  2  0
 21 28  1  0
 28 29  2  0
 17 30  1  0
 30 31  2  0
 31 32  1  0
 32 33  1  0
 33 34  2  0
 34 35  1  0
 35 36  2  0
 36 37  1  0
 37 38  1  0
 38 39  2  0
 39 40  1  0
 40 41  2  0
 41 42  1  0
 42 43  1  0
 43 44  2  0
 44 45  1  0
 45 46  2  0
 46 47  1  0
 47 48  2  0
 48 49  1  0
 49 50  2  0
 50 51  1  0
 51 52  1  0
 52 53  2  0
 53 54  1  0
 54 55  2  0
 55 56  1  0
 56 57  2  0
 46 58  1  0
 58 59  2  0
  5 60  1  0
 60 61  2  0
 61  2  1  0
 13  9  1  0
 31 14  1  0
 37 32  1  0
 42 38  1  0
 59 43  1  0
 29 18  1  0
 51 47  1  0
 57 52  1  0
 27 22  1  0
M  END
>  <Title>  (554) 
idAAVHgen8

$$$$

     RDKit          2D

 17 17  0  0  0  0  0  0  0  0999 V2000
    5.6205   -1.2990    0.0000 N   0  0  0  0  0  0  0  0  0  0  0  0
    4.8705    0.0000    0.0000 C   0  0  0  0  0  0  0  0  0  0  0  0
    5.6205    1.2990    0.0000 O   0  0  0  0  0  0  0  0  0  0  0  0
    3.3705    0.0000    0.0000 C   0  0  0  0  0  0  0  0  0  0  0  0
    3.0367   -1.4624    0.0000 C   0  0  0  0  0  0  0  0  0  0  0  0
    2.1015   -2.6351    0.0000 C   0  0  0  0  0  0  0  0  0  0  0  0
    0.7500   -3.2860    0.0000 C   0  0  0  0  0  0  0  0  0  0  0  0
   -0.7500   -3.2860    0.0000 C   0  0  0  0  0  0  0  0  0  0  0  0
   -2.1015   -2.6351    0.0000 C   0  0  0  0  0  0  0  0  0  0  0  0
   -3.0367   -1.4624    0.0000 C   0  0  0  0  0  0  0  0  0  0  0  0
   -3.3705    0.0000    0.0000 C   0  0  0  0  0  0  0  0  0  0  0  0
   -3.0367    1.4624    0.0000 C   0  0  0  0  0  0  0  0  0  0  0  0
   -2.1015    2.6351    0.0000 C   0  0  0  0  0  0  0  0  0  0  0  0
   -0.7500    3.2860    0.0000 C   0  0  0  0  0  0  0  0  0  0  0  0
    0.7500    3.2860    0.0000 C   0  0  0  0  0  0  0  0  0  0  0  0
    2.1015    2.6351    0.0000 C   0  0  0  0  0  0  0  0  0  0  0  0
    3.0367    1.4624    0.0000 C   0  0  0  0  0  0  0  0  0  0  0  0
  1  2  1  0
  2  3  2  0
  2  4  1  0
  4  5  2  0
  5  6  1  0
  6  7  2  0
  7  8  1  0
  8  9  2  0
  9 10  1  0
 10 11  2  0
 11 12  1  0
 12 13  2  0
 13 14  1  0
 14 15  2  0
 15 16  1  0
 16 17  2  0
 17  4  1  0
M  END
>  <Title>  (555) 
idAAVIgen8

$$$$

     RDKit          2D

 28 30  0  0  0  0  0  0  0  0999 V2000
   -0.0000   -3.4598    0.0000 C   0  0  0  0  0  0  0  0  0  0  0  0
   -0.0000   -1.9598    0.0000 C   0  0  0  0  0  0  0  0  0  0  0  0
    1.3858   -1.3858    0.0000 C   0  0  0  0  0  0  0  0  0  0  0  0
    1.9598   -0.0000    0.0000 C   0  0  0  0  0  0  0  0  0  0  0  0
    1.3858    1.3858    0.0000 C   0  0  0  0  0  0  0  0  0  0  0  0
    0.0000    1.9598    0.0000 C   0  0  0  0  0  0  0  0  0  0  0  0
   -1.3858    1.3858    0.0000 C   0  0  0  0  0  0  0  0  0  0  0  0
   -2.4465    2.4465    0.0000 C   0  0  0  0  0  0  0  0  0  0  0  0
   -3.9280    2.2118    0.0000 N   0  0  0  0  0  0  0  0  0  0  0  0
   -4.6090    3.5483    0.0000 N   0  0  0  0  0  0  0  0  0  0  0  0
   -3.5483    4.6090    0.0000 N   0  0  0  0  0  0  0  0  0  0  0  0
   -2.2118    3.9280    0.0000 N   0  0  0  0  0  0  0  0  0  0  0  0
   -0.8753    4.6090    0.0000 C   0  0  0  0  0  0  0  0  0  0  0  0
    0.2653    3.6348    0.0000 C   0  0  0  0  0  0  0  0  0  0  0  0
    1.7607    3.7525    0.0000 C   0  0  0  0  0  0  0  0  0  0  0  0
    2.7348    4.8931    0.0000 C   0  0  0  0  0  0  0  0  0  0  0  0
    4.1614    4.4296    0.0000 C   0  0  0  0  0  0  0  0  0  0  0  0
    5.2761    5.4333    0.0000 O   0  0  0  0  0  0  0  0  0  0  0  0
    4.4733    2.9624    0.0000 N   0  0  0  0  0  0  0  0  0  0  0  0
    5.8999    2.4989    0.0000 O   0  0  0  0  0  0  0  0  0  0  0  0
    2.6172    6.3885    0.0000 C   0  0  0  0  0  0  0  0  0  0  0  0
    3.9537    7.0695    0.0000 C   0  0  0  0  0  0  0  0  0  0  0  0
    1.4765    7.3627    0.0000 C   0  0  0  0  0  0  0  0  0  0  0  0
   -0.0188    7.2450    0.0000 C   0  0  0  0  0  0  0  0  0  0  0  0
   -0.9930    6.1044    0.0000 C   0  0  0  0  0  0  0  0  0  0  0  0
   -1.9598    0.0000    0.0000 C   0  0  0  0  0  0  0  0  0  0  0  0
   -3.4598    0.0000    0.0000 O   0  0  0  0  0  0  0  0  0  0  0  0
   -1.3858   -1.3858    0.0000 N   0  0  0  0  0  0  0  0  0  0  0  0
  1  2  1  0
  2  3  2  0
  3  4  1  0
  4  5  2  0
  5  6  1  0
  6  7  2  0
  7  8  1  0
  8  9  2  0
  9 10  1  0
 10 11  2  0
 11 12  1  0
 12 13  1  0
 13 14  2  0
 14 15  1  0
 15 16  2  0
 16 17  1  0
 17 18  2  0
 17 19  1  0
 19 20  1  0
 16 21  1  0
 21 22  1  0
 21 23  2  0
 23 24  1  0
 24 25  2  0
  7 26  1  0
 26 27  2  0
 26 28  1  0
 28  2  1  0
 12  8  1  0
 25 13  1  0
M  END
>  <Title>  (556) 
idAAVJgen8

$$$$

     RDKit          2D

 26 29  0  0  0  0  0  0  0  0999 V2000
    3.4598   -0.0000    0.0000 C   0  0  0  0  0  0  0  0  0  0  0  0
    1.9598    0.0000    0.0000 C   0  0  0  0  0  0  0  0  0  0  0  0
    1.3858   -1.3858    0.0000 C   0  0  0  0  0  0  0  0  0  0  0  0
   -0.0000   -1.9598    0.0000 C   0  0  0  0  0  0  0  0  0  0  0  0
   -1.3858   -1.3858    0.0000 C   0  0  0  0  0  0  0  0  0  0  0  0
   -1.9598    0.0000    0.0000 C   0  0  0  0  0  0  0  0  0  0  0  0
   -1.3858    1.3858    0.0000 C   0  0  0  0  0  0  0  0  0  0  0  0
   -2.4465    2.4465    0.0000 N   0  0  0  0  0  0  0  0  0  0  0  0
   -3.9280    2.2118    0.0000 C   0  0  0  0  0  0  0  0  0  0  0  0
   -4.6090    3.5483    0.0000 C   0  0  0  0  0  0  0  0  0  0  0  0
   -6.0905    3.7830    0.0000 C   0  0  0  0  0  0  0  0  0  0  0  0
   -7.1512    2.7223    0.0000 N   0  0  0  0  0  0  0  0  0  0  0  0
   -8.4877    3.4033    0.0000 N   0  0  0  0  0  0  0  0  0  0  0  0
   -8.2530    4.8848    0.0000 N   0  0  0  0  0  0  0  0  0  0  0  0
   -6.7715    5.1195    0.0000 N   0  0  0  0  0  0  0  0  0  0  0  0
   -6.0905    6.4560    0.0000 C   0  0  0  0  0  0  0  0  0  0  0  0
   -4.5926    6.5345    0.0000 C   0  0  0  0  0  0  0  0  0  0  0  0
   -3.9116    7.8710    0.0000 N   0  0  0  0  0  0  0  0  0  0  0  0
   -4.7286    9.1290    0.0000 N   0  0  0  0  0  0  0  0  0  0  0  0
   -6.2265    9.0505    0.0000 N   0  0  0  0  0  0  0  0  0  0  0  0
   -6.9075    7.7140    0.0000 N   0  0  0  0  0  0  0  0  0  0  0  0
   -3.5483    4.6090    0.0000 C   0  0  0  0  0  0  0  0  0  0  0  0
   -2.2118    3.9280    0.0000 C   0  0  0  0  0  0  0  0  0  0  0  0
    0.0000    1.9598    0.0000 C   0  0  0  0  0  0  0  0  0  0  0  0
    0.0000    3.4598    0.0000 O   0  0  0  0  0  0  0  0  0  0  0  0
    1.3858    1.3858    0.0000 N   0  0  0  0  0  0  0  0  0  0  0  0
  1  2  1  0
  2  3  2  0
  3  4  1  0
  4  5  2  0
  5  6  1  0
  6  7  2  0
  7  8  1  0
  8  9  1  0
  9 10  2  0
 10 11  1  0
 11 12  2  0
 12 13  1  0
 13 14  2  0
 14 15  1  0
 15 16  1  0
 16 17  2  0
 17 18  1  0
 18 19  2  0
 19 20  1  0
 20 21  2  0
 10 22  1  0
 22 23  1  0
  7 24  1  0
 24 25  2  0
 24 26  1  0
 26  2  1  0
 23  8  1  0
 15 11  1  0
 21 16  1  0
M  END
>  <Title>  (557) 
idAAVKgen8

$$$$

     RDKit          2D

 16 16  0  0  0  0  0  0  0  0999 V2000
    4.8705    0.0000    0.0000 O   0  0  0  0  0  0  0  0  0  0  0  0
    3.3705    0.0000    0.0000 C   0  0  0  0  0  0  0  0  0  0  0  0
    3.0367   -1.4624    0.0000 C   0  0  0  0  0  0  0  0  0  0  0  0
    2.1015   -2.6351    0.0000 C   0  0  0  0  0  0  0  0  0  0  0  0
    0.7500   -3.2860    0.0000 C   0  0  0  0  0  0  0  0  0  0  0  0
   -0.7500   -3.2860    0.0000 C   0  0  0  0  0  0  0  0  0  0  0  0
   -2.1015   -2.6351    0.0000 C   0  0  0  0  0  0  0  0  0  0  0  0
   -3.0367   -1.4624    0.0000 C   0  0  0  0  0  0  0  0  0  0  0  0
   -3.3705    0.0000    0.0000 C   0  0  0  0  0  0  0  0  0  0  0  0
   -3.0367    1.4624    0.0000 C   0  0  0  0  0  0  0  0  0  0  0  0
   -2.1015    2.6351    0.0000 C   0  0  0  0  0  0  0  0  0  0  0  0
   -0.7500    3.2860    0.0000 C   0  0  0  0  0  0  0  0  0  0  0  0
    0.7500    3.2860    0.0000 C   0  0  0  0  0  0  0  0  0  0  0  0
    2.1015    2.6351    0.0000 C   0  0  0  0  0  0  0  0  0  0  0  0
    3.0367    1.4624    0.0000 C   0  0  0  0  0  0  0  0  0  0  0  0
    4.3881    2.1132    0.0000 O   0  0  0  0  0  0  0  0  0  0  0  0
  1  2  1  0
  2  3  2  0
  3  4  1  0
  4  5  2  0
  5  6  1  0
  6  7  2  0
  7  8  1  0
  8  9  2  0
  9 10  1  0
 10 11  2  0
 11 12  1  0
 12 13  2  0
 13 14  1  0
 14 15  2  0
 15 16  1  0
 15  2  1  0
M  END
>  <Title>  (558) 
idAAVLgen8

$$$$

     RDKit          2D

 25 25  0  0  0  0  0  0  0  0999 V2000
    7.2460    0.0000    0.0000 O   0  0  0  0  0  0  0  0  0  0  0  0
    5.7460    0.0000    0.0000 C   0  0  0  0  0  0  0  0  0  0  0  0
    5.5502   -1.4872    0.0000 C   0  0  0  0  0  0  0  0  0  0  0  0
    4.9762   -2.8730    0.0000 C   0  0  0  0  0  0  0  0  0  0  0  0
    4.0630   -4.0630    0.0000 C   0  0  0  0  0  0  0  0  0  0  0  0
    2.8730   -4.9762    0.0000 C   0  0  0  0  0  0  0  0  0  0  0  0
    1.4872   -5.5502    0.0000 C   0  0  0  0  0  0  0  0  0  0  0  0
   -0.0000   -5.7460    0.0000 C   0  0  0  0  0  0  0  0  0  0  0  0
   -1.4872   -5.5502    0.0000 C   0  0  0  0  0  0  0  0  0  0  0  0
   -2.8730   -4.9762    0.0000 C   0  0  0  0  0  0  0  0  0  0  0  0
   -4.0630   -4.0630    0.0000 C   0  0  0  0  0  0  0  0  0  0  0  0
   -4.9762   -2.8730    0.0000 C   0  0  0  0  0  0  0  0  0  0  0  0
   -5.5502   -1.4872    0.0000 C   0  0  0  0  0  0  0  0  0  0  0  0
   -5.7460    0.0000    0.0000 C   0  0  0  0  0  0  0  0  0  0  0  0
   -5.5502    1.4872    0.0000 O   0  0  0  0  0  0  0  0  0  0  0  0
   -4.9762    2.8730    0.0000 C   0  0  0  0  0  0  0  0  0  0  0  0
   -4.0630    4.0630    0.0000 C   0  0  0  0  0  0  0  0  0  0  0  0
   -2.8730    4.9762    0.0000 O   0  0  0  0  0  0  0  0  0  0  0  0
   -1.4872    5.5502    0.0000 C   0  0  0  0  0  0  0  0  0  0  0  0
    0.0000    5.7460    0.0000 C   0  0  0  0  0  0  0  0  0  0  0  0
    1.4872    5.5502    0.0000 C   0  0  0  0  0  0  0  0  0  0  0  0
    2.8730    4.9762    0.0000 C   0  0  0  0  0  0  0  0  0  0  0  0
    4.0630    4.0630    0.0000 C   0  0  0  0  0  0  0  0  0  0  0  0
    4.9762    2.8730    0.0000 C   0  0  0  0  0  0  0  0  0  0  0  0
    5.5502    1.4872    0.0000 C   0  0  0  0  0  0  0  0  0  0  0  0
  1  2  1  0
  2  3  2  0
  3  4  1  0
  4  5  2  0
  5  6  1  0
  6  7  2  0
  7  8  1  0
  8  9  2  0
  9 10  1  0
 10 11  2  0
 11 12  1  0
 12 13  2  0
 13 14  1  0
 14 15  1  0
 15 16  1  0
 16 17  1  0
 17 18  1  0
 18 19  1  0
 19 20  1  0
 20 21  2  0
 21 22  1  0
 22 23  2  0
 23 24  1  0
 24 25  2  0
 25  2  1  0
M  END
>  <Title>  (559) 
idAAVMgen8

$$$$

     RDKit          2D

 51 56  0  0  0  0  0  0  0  0999 V2000
   -1.9451    5.9863    0.0000 O   0  0  0  0  0  0  0  0  0  0  0  0
   -1.4815    4.5597    0.0000 C   0  0  0  0  0  0  0  0  0  0  0  0
   -2.8180    3.8787    0.0000 C   0  0  0  0  0  0  0  0  0  0  0  0
   -3.8787    2.8180    0.0000 C   0  0  0  0  0  0  0  0  0  0  0  0
   -4.5597    1.4815    0.0000 C   0  0  0  0  0  0  0  0  0  0  0  0
   -4.7943    0.0000    0.0000 C   0  0  0  0  0  0  0  0  0  0  0  0
   -4.5597   -1.4815    0.0000 C   0  0  0  0  0  0  0  0  0  0  0  0
   -3.8787   -2.8180    0.0000 C   0  0  0  0  0  0  0  0  0  0  0  0
   -2.8180   -3.8787    0.0000 C   0  0  0  0  0  0  0  0  0  0  0  0
   -1.4815   -4.5597    0.0000 C   0  0  0  0  0  0  0  0  0  0  0  0
    0.0000   -4.7943    0.0000 C   0  0  0  0  0  0  0  0  0  0  0  0
    1.4815   -4.5597    0.0000 C   0  0  0  0  0  0  0  0  0  0  0  0
    2.8180   -3.8787    0.0000 C   0  0  0  0  0  0  0  0  0  0  0  0
    3.8787   -2.8180    0.0000 C   0  0  0  0  0  0  0  0  0  0  0  0
    4.5597   -1.4815    0.0000 C   0  0  0  0  0  0  0  0  0  0  0  0
    4.7943    0.0000    0.0000 C   0  0  0  0  0  0  0  0  0  0  0  0
    4.5597    1.4815    0.0000 C   0  0  0  0  0  0  0  0  0  0  0  0
    3.8787    2.8180    0.0000 C   0  0  0  0  0  0  0  0  0  0  0  0
    2.8180    3.8787    0.0000 C   0  0  0  0  0  0  0  0  0  0  0  0
    3.6997    5.0922    0.0000 C   0  0  0  0  0  0  0  0  0  0  0  0
    3.2362    6.5188    0.0000 N   0  0  0  0  0  0  0  0  0  0  0  0
    4.4497    7.4005    0.0000 N   0  0  0  0  0  0  0  0  0  0  0  0
    5.6632    6.5188    0.0000 N   0  0  0  0  0  0  0  0  0  0  0  0
    5.1997    5.0922    0.0000 N   0  0  0  0  0  0  0  0  0  0  0  0
    6.0814    3.8787    0.0000 C   0  0  0  0  0  0  0  0  0  0  0  0
    7.5233    4.2922    0.0000 C   0  0  0  0  0  0  0  0  0  0  0  0
    8.8936    3.6821    0.0000 C   0  0  0  0  0  0  0  0  0  0  0  0
    9.5512    2.3339    0.0000 C   0  0  0  0  0  0  0  0  0  0  0  0
   11.0429    2.4907    0.0000 C   0  0  0  0  0  0  0  0  0  0  0  0
   11.8315    1.2146    0.0000 C   0  0  0  0  0  0  0  0  0  0  0  0
   13.3207    1.0355    0.0000 C   0  0  0  0  0  0  0  0  0  0  0  0
   14.3893    2.0882    0.0000 N   0  0  0  0  0  0  0  0  0  0  0  0
   14.2325    3.5800    0.0000 N   0  0  0  0  0  0  0  0  0  0  0  0
   12.9684    4.3875    0.0000 N   0  0  0  0  0  0  0  0  0  0  0  0
   11.5489    3.9027    0.0000 N   0  0  0  0  0  0  0  0  0  0  0  0
   10.4962    4.9713    0.0000 C   0  0  0  0  0  0  0  0  0  0  0  0
    9.0445    4.5939    0.0000 C   0  0  0  0  0  0  0  0  0  0  0  0
    7.9918    5.6625    0.0000 C   0  0  0  0  0  0  0  0  0  0  0  0
    8.3909    7.1084    0.0000 C   0  0  0  0  0  0  0  0  0  0  0  0
    9.8426    7.4858    0.0000 C   0  0  0  0  0  0  0  0  0  0  0  0
   10.8953    6.4172    0.0000 C   0  0  0  0  0  0  0  0  0  0  0  0
    9.1883    0.8784    0.0000 C   0  0  0  0  0  0  0  0  0  0  0  0
    7.9748   -0.0033    0.0000 C   0  0  0  0  0  0  0  0  0  0  0  0
    8.3376   -1.4587    0.0000 C   0  0  0  0  0  0  0  0  0  0  0  0
    7.0656   -2.2536    0.0000 C   0  0  0  0  0  0  0  0  0  0  0  0
    5.9165   -1.2894    0.0000 C   0  0  0  0  0  0  0  0  0  0  0  0
    6.4784    0.1014    0.0000 C   0  0  0  0  0  0  0  0  0  0  0  0
    5.3994    1.1434    0.0000 C   0  0  0  0  0  0  0  0  0  0  0  0
    5.2426    2.6351    0.0000 N   0  0  0  0  0  0  0  0  0  0  0  0
    1.4815    4.5597    0.0000 N   0  0  0  0  0  0  0  0  0  0  0  0
   -0.0000    4.7943    0.0000 C   0  0  0  0  0  0  0  0  0  0  0  0
  1  2  1  0
  2  3  2  0
  3  4  1  0
  4  5  2  0
  5  6  1  0
  6  7  2  0
  7  8  1  0
  8  9  2  0
  9 10  1  0
 10 11  2  0
 11 12  1  0
 12 13  2  0
 13 14  1  0
 14 15  2  0
 15 16  1  0
 16 17  2  0
 17 18  1  0
 18 19  2  0
 19 20  1  0
 20 21  2  0
 21 22  1  0
 22 23  2  0
 23 24  1  0
 24 25  1  0
 25 26  2  0
 26 27  1  0
 27 28  2  0
 28 29  1  0
 29 30  2  0
 30 31  1  0
 31 32  2  0
 32 33  1  0
 33 34  2  0
 34 35  1  0
 35 36  1  0
 36 37  2  0
 37 38  1  0
 38 39  2  0
 39 40  1  0
 40 41  2  0
 28 42  1  0
 42 43  2  0
 43 44  1  0
 44 45  2  0
 45 46  1  0
 46 47  2  0
 47 48  1  0
 48 49  1  0
 19 50  1  0
 50 51  1  0
 51  2  1  0
 24 20  1  0
 49 25  1  0
 35 29  1  0
 41 36  1  0
 47 43  1  0
M  END
>  <Title>  (560) 
idAAVNgen8

$$$$

     RDKit          2D

 57 65  0  0  0  0  0  0  0  0999 V2000
    3.2286   -0.0000    0.0000 C   0  0  0  0  0  0  0  0  0  0  0  0
    1.7286    0.0000    0.0000 C   0  0  0  0  0  0  0  0  0  0  0  0
    1.0777    1.3515    0.0000 C   0  0  0  0  0  0  0  0  0  0  0  0
   -0.3846    1.6852    0.0000 C   0  0  0  0  0  0  0  0  0  0  0  0
   -1.5574    0.7500    0.0000 C   0  0  0  0  0  0  0  0  0  0  0  0
   -1.5574   -0.7500    0.0000 C   0  0  0  0  0  0  0  0  0  0  0  0
   -2.9088   -1.4008    0.0000 C   0  0  0  0  0  0  0  0  0  0  0  0
   -3.0209   -2.8966    0.0000 O   0  0  0  0  0  0  0  0  0  0  0  0
   -4.1482   -0.5558    0.0000 N   0  0  0  0  0  0  0  0  0  0  0  0
   -5.4997   -1.2067    0.0000 C   0  0  0  0  0  0  0  0  0  0  0  0
   -5.7675   -2.6826    0.0000 N   0  0  0  0  0  0  0  0  0  0  0  0
   -7.2539   -2.8839    0.0000 N   0  0  0  0  0  0  0  0  0  0  0  0
   -7.9047   -1.5325    0.0000 N   0  0  0  0  0  0  0  0  0  0  0  0
   -6.8205   -0.4959    0.0000 N   0  0  0  0  0  0  0  0  0  0  0  0
   -7.0219    0.9906    0.0000 C   0  0  0  0  0  0  0  0  0  0  0  0
   -5.8353    1.9081    0.0000 C   0  0  0  0  0  0  0  0  0  0  0  0
   -6.0366    3.3946    0.0000 C   0  0  0  0  0  0  0  0  0  0  0  0
   -7.4246    3.9634    0.0000 C   0  0  0  0  0  0  0  0  0  0  0  0
   -7.6259    5.4498    0.0000 C   0  0  0  0  0  0  0  0  0  0  0  0
   -8.9468    6.1606    0.0000 N   0  0  0  0  0  0  0  0  0  0  0  0
   -8.6790    7.6365    0.0000 N   0  0  0  0  0  0  0  0  0  0  0  0
   -7.1926    7.8379    0.0000 N   0  0  0  0  0  0  0  0  0  0  0  0
   -6.5418    6.4864    0.0000 N   0  0  0  0  0  0  0  0  0  0  0  0
   -5.0659    6.2186    0.0000 C   0  0  0  0  0  0  0  0  0  0  0  0
   -4.5599    4.8065    0.0000 C   0  0  0  0  0  0  0  0  0  0  0  0
   -3.0840    4.5387    0.0000 C   0  0  0  0  0  0  0  0  0  0  0  0
   -2.1141    5.6829    0.0000 C   0  0  0  0  0  0  0  0  0  0  0  0
   -2.6201    7.0950    0.0000 C   0  0  0  0  0  0  0  0  0  0  0  0
   -4.0960    7.3628    0.0000 C   0  0  0  0  0  0  0  0  0  0  0  0
   -8.6112    3.0458    0.0000 C   0  0  0  0  0  0  0  0  0  0  0  0
   -8.4099    1.5594    0.0000 C   0  0  0  0  0  0  0  0  0  0  0  0
   -9.5965    0.6418    0.0000 C   0  0  0  0  0  0  0  0  0  0  0  0
   -9.3951   -0.8446    0.0000 C   0  0  0  0  0  0  0  0  0  0  0  0
  -10.5817   -1.7622    0.0000 C   0  0  0  0  0  0  0  0  0  0  0  0
  -11.9697   -1.1934    0.0000 C   0  0  0  0  0  0  0  0  0  0  0  0
  -12.1710    0.2931    0.0000 C   0  0  0  0  0  0  0  0  0  0  0  0
  -10.9844    1.2106    0.0000 C   0  0  0  0  0  0  0  0  0  0  0  0
  -11.1858    2.6971    0.0000 N   0  0  0  0  0  0  0  0  0  0  0  0
   -9.9992    3.6147    0.0000 N   0  0  0  0  0  0  0  0  0  0  0  0
  -10.2005    5.1011    0.0000 N   0  0  0  0  0  0  0  0  0  0  0  0
  -11.5885    5.6699    0.0000 N   0  0  0  0  0  0  0  0  0  0  0  0
  -12.7751    4.7523    0.0000 N   0  0  0  0  0  0  0  0  0  0  0  0
  -12.5737    3.2659    0.0000 N   0  0  0  0  0  0  0  0  0  0  0  0
  -13.7603    2.3483    0.0000 C   0  0  0  0  0  0  0  0  0  0  0  0
  -15.1483    2.9172    0.0000 C   0  0  0  0  0  0  0  0  0  0  0  0
  -16.3349    1.9996    0.0000 C   0  0  0  0  0  0  0  0  0  0  0  0
  -16.1335    0.5131    0.0000 C   0  0  0  0  0  0  0  0  0  0  0  0
  -17.3202   -0.4044    0.0000 C   0  0  0  0  0  0  0  0  0  0  0  0
  -18.7081    0.1644    0.0000 C   0  0  0  0  0  0  0  0  0  0  0  0
  -19.8947   -0.7532    0.0000 C   0  0  0  0  0  0  0  0  0  0  0  0
  -19.6934   -2.2396    0.0000 C   0  0  0  0  0  0  0  0  0  0  0  0
  -18.3054   -2.8084    0.0000 C   0  0  0  0  0  0  0  0  0  0  0  0
  -17.1188   -1.8909    0.0000 C   0  0  0  0  0  0  0  0  0  0  0  0
  -14.7456   -0.0557    0.0000 C   0  0  0  0  0  0  0  0  0  0  0  0
  -13.5590    0.8619    0.0000 C   0  0  0  0  0  0  0  0  0  0  0  0
   -0.3846   -1.6852    0.0000 C   0  0  0  0  0  0  0  0  0  0  0  0
    1.0777   -1.3515    0.0000 C   0  0  0  0  0  0  0  0  0  0  0  0
  1  2  1  0
  2  3  2  0
  3  4  1  0
  4  5  2  0
  5  6  2  0
  6  7  1  0
  7  8  2  0
  7  9  1  0
  9 10  1  0
 10 11  2  0
 11 12  1  0
 12 13  2  0
 13 14  1  0
 14 15  1  0
 15 16  2  0
 16 17  1  0
 17 18  2  0
 18 19  1  0
 19 20  2  0
 20 21  1  0
 21 22  2  0
 22 23  1  0
 23 24  1  0
 24 25  2  0
 25 26  1  0
 26 27  2  0
 27 28  1  0
 28 29  2  0
 18 30  1  0
 30 31  2  0
 31 32  1  0
 32 33  2  0
 33 34  1  0
 34 35  2  0
 35 36  1  0
 36 37  2  0
 37 38  1  0
 38 39  1  0
 39 40  2  0
 40 41  1  0
 41 42  2  0
 42 43  1  0
 43 44  1  0
 44 45  2  0
 45 46  1  0
 46 47  2  0
 47 48  1  0
 48 49  2  0
 49 50  1  0
 50 51  2  0
 51 52  1  0
 52 53  2  0
 47 54  1  0
 54 55  2  0
  6 56  1  0
 56 57  2  0
 57  2  1  0
 14 10  1  0
 31 15  1  0
 37 32  1  0
 43 38  1  0
 55 44  1  0
 23 19  1  0
 29 24  1  0
 53 48  1  0
M  END
>  <Title>  (561) 
idAAVOgen8

$$$$

     RDKit          2D

 19 19  0  0  0  0  0  0  0  0999 V2000
    5.5816    0.0000    0.0000 C   0  0  0  0  0  0  0  0  0  0  0  0
    4.0816    0.0000    0.0000 C   0  0  0  0  0  0  0  0  0  0  0  0
    3.8060    1.4745    0.0000 C   0  0  0  0  0  0  0  0  0  0  0  0
    3.0164    2.7498    0.0000 C   0  0  0  0  0  0  0  0  0  0  0  0
    1.8193    3.6537    0.0000 C   0  0  0  0  0  0  0  0  0  0  0  0
    0.3766    4.0642    0.0000 C   0  0  0  0  0  0  0  0  0  0  0  0
   -1.1170    3.9258    0.0000 C   0  0  0  0  0  0  0  0  0  0  0  0
   -2.4597    3.2572    0.0000 C   0  0  0  0  0  0  0  0  0  0  0  0
   -3.4703    2.1487    0.0000 C   0  0  0  0  0  0  0  0  0  0  0  0
   -4.7456    2.9384    0.0000 C   0  0  0  0  0  0  0  0  0  0  0  0
   -4.0121    0.7500    0.0000 C   0  0  0  0  0  0  0  0  0  0  0  0
   -4.0121   -0.7500    0.0000 C   0  0  0  0  0  0  0  0  0  0  0  0
   -3.4703   -2.1487    0.0000 C   0  0  0  0  0  0  0  0  0  0  0  0
   -2.4597   -3.2572    0.0000 C   0  0  0  0  0  0  0  0  0  0  0  0
   -1.1170   -3.9258    0.0000 C   0  0  0  0  0  0  0  0  0  0  0  0
    0.3766   -4.0642    0.0000 C   0  0  0  0  0  0  0  0  0  0  0  0
    1.8193   -3.6537    0.0000 C   0  0  0  0  0  0  0  0  0  0  0  0
    3.0164   -2.7498    0.0000 C   0  0  0  0  0  0  0  0  0  0  0  0
    3.8060   -1.4745    0.0000 C   0  0  0  0  0  0  0  0  0  0  0  0
  1  2  1  0
  2  3  2  0
  3  4  1  0
  4  5  2  0
  5  6  1  0
  6  7  2  0
  7  8  1  0
  8  9  2  0
  9 10  1  0
  9 11  1  0
 11 12  1  0
 12 13  1  0
 13 14  1  0
 14 15  1  0
 15 16  1  0
 16 17  1  0
 17 18  1  0
 18 19  2  0
 19  2  1  0
M  END
>  <Title>  (562) 
idAAVPgen8

$$$$

     RDKit          2D

 37 42  0  0  0  0  0  0  0  0999 V2000
    3.2286   -0.0000    0.0000 C   0  0  0  0  0  0  0  0  0  0  0  0
    1.7286    0.0000    0.0000 C   0  0  0  0  0  0  0  0  0  0  0  0
    1.0777    1.3515    0.0000 C   0  0  0  0  0  0  0  0  0  0  0  0
   -0.3846    1.6852    0.0000 C   0  0  0  0  0  0  0  0  0  0  0  0
   -1.5574    0.7500    0.0000 C   0  0  0  0  0  0  0  0  0  0  0  0
   -2.9088    1.4008    0.0000 C   0  0  0  0  0  0  0  0  0  0  0  0
   -4.2297    0.6900    0.0000 N   0  0  0  0  0  0  0  0  0  0  0  0
   -5.3139    1.7266    0.0000 N   0  0  0  0  0  0  0  0  0  0  0  0
   -4.6631    3.0781    0.0000 N   0  0  0  0  0  0  0  0  0  0  0  0
   -3.1767    2.8767    0.0000 N   0  0  0  0  0  0  0  0  0  0  0  0
   -2.1401    3.9609    0.0000 C   0  0  0  0  0  0  0  0  0  0  0  0
   -2.4079    5.4368    0.0000 C   0  0  0  0  0  0  0  0  0  0  0  0
   -1.0870    6.1476    0.0000 C   0  0  0  0  0  0  0  0  0  0  0  0
   -0.0028    5.1110    0.0000 C   0  0  0  0  0  0  0  0  0  0  0  0
    1.4731    5.3789    0.0000 C   0  0  0  0  0  0  0  0  0  0  0  0
    2.5573    4.3423    0.0000 N   0  0  0  0  0  0  0  0  0  0  0  0
    3.8781    5.0531    0.0000 N   0  0  0  0  0  0  0  0  0  0  0  0
    3.6103    6.5290    0.0000 N   0  0  0  0  0  0  0  0  0  0  0  0
    2.1239    6.7303    0.0000 N   0  0  0  0  0  0  0  0  0  0  0  0
    1.4131    8.0512    0.0000 C   0  0  0  0  0  0  0  0  0  0  0  0
   -0.0862    8.0961    0.0000 C   0  0  0  0  0  0  0  0  0  0  0  0
   -0.7971    9.4170    0.0000 C   0  0  0  0  0  0  0  0  0  0  0  0
   -0.0085   10.6930    0.0000 C   0  0  0  0  0  0  0  0  0  0  0  0
    1.4908   10.6481    0.0000 C   0  0  0  0  0  0  0  0  0  0  0  0
    2.2016    9.3272    0.0000 C   0  0  0  0  0  0  0  0  0  0  0  0
    3.7009    9.2823    0.0000 C   0  0  0  0  0  0  0  0  0  0  0  0
    4.4895   10.5584    0.0000 C   0  0  0  0  0  0  0  0  0  0  0  0
    5.9888   10.5135    0.0000 C   0  0  0  0  0  0  0  0  0  0  0  0
    6.6996    9.1926    0.0000 C   0  0  0  0  0  0  0  0  0  0  0  0
    5.9111    7.9166    0.0000 C   0  0  0  0  0  0  0  0  0  0  0  0
    4.4117    7.9615    0.0000 C   0  0  0  0  0  0  0  0  0  0  0  0
   -0.6537    3.7596    0.0000 C   0  0  0  0  0  0  0  0  0  0  0  0
    0.0571    2.4387    0.0000 O   0  0  0  0  0  0  0  0  0  0  0  0
   -1.5574   -0.7500    0.0000 N   0  0  0  0  0  0  0  0  0  0  0  0
   -0.3846   -1.6852    0.0000 C   0  0  0  0  0  0  0  0  0  0  0  0
   -0.7184   -3.1476    0.0000 O   0  0  0  0  0  0  0  0  0  0  0  0
    1.0777   -1.3515    0.0000 N   0  0  0  0  0  0  0  0  0  0  0  0
  1  2  1  0
  2  3  2  0
  3  4  1  0
  4  5  2  0
  5  6  1  0
  6  7  2  0
  7  8  1  0
  8  9  2  0
  9 10  1  0
 10 11  1  0
 11 12  2  0
 12 13  1  0
 13 14  2  0
 14 15  1  0
 15 16  2  0
 16 17  1  0
 17 18  2  0
 18 19  1  0
 19 20  1  0
 20 21  2  0
 21 22  1  0
 22 23  2  0
 23 24  1  0
 24 25  2  0
 25 26  1  0
 26 27  2  0
 27 28  1  0
 28 29  2  0
 29 30  1  0
 30 31  2  0
 14 32  1  0
 32 33  2  0
  5 34  1  0
 34 35  1  0
 35 36  2  0
 35 37  1  0
 37  2  1  0
 10  6  1  0
 32 11  1  0
 19 15  1  0
 25 20  1  0
 31 26  1  0
M  END
>  <Title>  (563) 
idAAVQgen8

$$$$

     RDKit          2D

 55 63  0  0  0  0  0  0  0  0999 V2000
    3.7500   -1.2990    0.0000 C   0  0  0  0  0  0  0  0  0  0  0  0
    3.0000    0.0000    0.0000 O   0  0  0  0  0  0  0  0  0  0  0  0
    1.5000    0.0000    0.0000 C   0  0  0  0  0  0  0  0  0  0  0  0
    0.7500   -1.2990    0.0000 C   0  0  0  0  0  0  0  0  0  0  0  0
   -0.7500   -1.2990    0.0000 C   0  0  0  0  0  0  0  0  0  0  0  0
   -1.5000    0.0000    0.0000 C   0  0  0  0  0  0  0  0  0  0  0  0
   -3.0000    0.0000    0.0000 C   0  0  0  0  0  0  0  0  0  0  0  0
   -3.8817   -1.2135    0.0000 N   0  0  0  0  0  0  0  0  0  0  0  0
   -5.3083   -0.7500    0.0000 N   0  0  0  0  0  0  0  0  0  0  0  0
   -5.3083    0.7500    0.0000 N   0  0  0  0  0  0  0  0  0  0  0  0
   -3.8817    1.2135    0.0000 N   0  0  0  0  0  0  0  0  0  0  0  0
   -3.4182    2.6401    0.0000 C   0  0  0  0  0  0  0  0  0  0  0  0
   -1.9509    2.9520    0.0000 C   0  0  0  0  0  0  0  0  0  0  0  0
   -1.4874    4.3786    0.0000 C   0  0  0  0  0  0  0  0  0  0  0  0
   -2.4911    5.4933    0.0000 C   0  0  0  0  0  0  0  0  0  0  0  0
   -2.0276    6.9199    0.0000 C   0  0  0  0  0  0  0  0  0  0  0  0
   -2.9093    8.1334    0.0000 N   0  0  0  0  0  0  0  0  0  0  0  0
   -2.0276    9.3469    0.0000 N   0  0  0  0  0  0  0  0  0  0  0  0
   -0.6010    8.8834    0.0000 N   0  0  0  0  0  0  0  0  0  0  0  0
   -0.6010    7.3834    0.0000 N   0  0  0  0  0  0  0  0  0  0  0  0
    0.6125    6.5017    0.0000 C   0  0  0  0  0  0  0  0  0  0  0  0
    0.4557    5.0099    0.0000 C   0  0  0  0  0  0  0  0  0  0  0  0
    1.6693    4.1283    0.0000 C   0  0  0  0  0  0  0  0  0  0  0  0
    3.0396    4.7384    0.0000 C   0  0  0  0  0  0  0  0  0  0  0  0
    3.1964    6.2301    0.0000 C   0  0  0  0  0  0  0  0  0  0  0  0
    1.9829    7.1118    0.0000 C   0  0  0  0  0  0  0  0  0  0  0  0
   -3.9583    5.1814    0.0000 C   0  0  0  0  0  0  0  0  0  0  0  0
   -4.4218    3.7548    0.0000 C   0  0  0  0  0  0  0  0  0  0  0  0
   -5.8891    3.4430    0.0000 C   0  0  0  0  0  0  0  0  0  0  0  0
   -6.3526    2.0164    0.0000 C   0  0  0  0  0  0  0  0  0  0  0  0
   -7.8198    1.7045    0.0000 C   0  0  0  0  0  0  0  0  0  0  0  0
   -8.8235    2.8192    0.0000 C   0  0  0  0  0  0  0  0  0  0  0  0
  -10.2907    2.5074    0.0000 C   0  0  0  0  0  0  0  0  0  0  0  0
  -11.4055    3.5111    0.0000 N   0  0  0  0  0  0  0  0  0  0  0  0
  -12.7045    2.7611    0.0000 N   0  0  0  0  0  0  0  0  0  0  0  0
  -12.3926    1.2938    0.0000 N   0  0  0  0  0  0  0  0  0  0  0  0
  -10.9008    1.1370    0.0000 N   0  0  0  0  0  0  0  0  0  0  0  0
  -10.1508   -0.1620    0.0000 C   0  0  0  0  0  0  0  0  0  0  0  0
   -8.6508   -0.1620    0.0000 C   0  0  0  0  0  0  0  0  0  0  0  0
   -7.9008   -1.4610    0.0000 C   0  0  0  0  0  0  0  0  0  0  0  0
   -8.6508   -2.7601    0.0000 C   0  0  0  0  0  0  0  0  0  0  0  0
  -10.1508   -2.7601    0.0000 C   0  0  0  0  0  0  0  0  0  0  0  0
  -10.9008   -1.4610    0.0000 C   0  0  0  0  0  0  0  0  0  0  0  0
   -8.3600    4.2458    0.0000 C   0  0  0  0  0  0  0  0  0  0  0  0
   -6.8928    4.5577    0.0000 C   0  0  0  0  0  0  0  0  0  0  0  0
   -6.4292    5.9843    0.0000 C   0  0  0  0  0  0  0  0  0  0  0  0
   -4.9620    6.2961    0.0000 C   0  0  0  0  0  0  0  0  0  0  0  0
   -4.4985    7.7227    0.0000 C   0  0  0  0  0  0  0  0  0  0  0  0
   -5.5022    8.8374    0.0000 C   0  0  0  0  0  0  0  0  0  0  0  0
   -5.0387   10.2640    0.0000 C   0  0  0  0  0  0  0  0  0  0  0  0
   -6.9694    8.5256    0.0000 C   0  0  0  0  0  0  0  0  0  0  0  0
   -7.9731    9.6403    0.0000 O   0  0  0  0  0  0  0  0  0  0  0  0
   -7.4329    7.0990    0.0000 N   0  0  0  0  0  0  0  0  0  0  0  0
   -0.7500    1.2990    0.0000 C   0  0  0  0  0  0  0  0  0  0  0  0
    0.7500    1.2990    0.0000 C   0  0  0  0  0  0  0  0  0  0  0  0
  1  2  1  0
  2  3  1  0
  3  4  2  0
  4  5  1  0
  5  6  2  0
  6  7  1  0
  7  8  2  0
  8  9  1  0
  9 10  2  0
 10 11  1  0
 11 12  1  0
 12 13  2  0
 13 14  1  0
 14 15  2  0
 15 16  1  0
 16 17  2  0
 17 18  1  0
 18 19  2  0
 19 20  1  0
 20 21  1  0
 21 22  1  0
 22 23  1  0
 23 24  1  0
 24 25  1  0
 25 26  1  0
 15 27  1  0
 27 28  2  0
 28 29  1  0
 29 30  2  0
 30 31  1  0
 31 32  2  0
 32 33  1  0
 33 34  2  0
 34 35  1  0
 35 36  2  0
 36 37  1  0
 37 38  1  0
 38 39  2  0
 39 40  1  0
 40 41  2  0
 41 42  1  0
 42 43  2  0
 32 44  1  0
 44 45  2  0
 45 46  1  0
 46 47  2  0
 47 48  1  0
 48 49  2  0
 49 50  1  0
 49 51  1  0
 51 52  2  0
 51 53  1  0
  6 54  1  0
 54 55  2  0
 55  3  1  0
 11  7  1  0
 28 12  1  0
 45 29  1  0
 53 46  1  0
 20 16  1  0
 26 21  1  0
 37 33  1  0
 43 38  1  0
M  END
>  <Title>  (564) 
idAAVRgen8

$$$$

     RDKit          2D

 44 46  0  0  0  0  0  0  0  0999 V2000
    7.2460    0.0000    0.0000 C   0  0  0  0  0  0  0  0  0  0  0  0
    5.7460    0.0000    0.0000 C   0  0  0  0  0  0  0  0  0  0  0  0
    5.5502   -1.4872    0.0000 C   0  0  0  0  0  0  0  0  0  0  0  0
    4.9762   -2.8730    0.0000 C   0  0  0  0  0  0  0  0  0  0  0  0
    4.0630   -4.0630    0.0000 C   0  0  0  0  0  0  0  0  0  0  0  0
    2.8730   -4.9762    0.0000 C   0  0  0  0  0  0  0  0  0  0  0  0
    1.4872   -5.5502    0.0000 C   0  0  0  0  0  0  0  0  0  0  0  0
   -0.0000   -5.7460    0.0000 C   0  0  0  0  0  0  0  0  0  0  0  0
   -1.4872   -5.5502    0.0000 C   0  0  0  0  0  0  0  0  0  0  0  0
   -2.8730   -4.9762    0.0000 C   0  0  0  0  0  0  0  0  0  0  0  0
   -4.0630   -4.0630    0.0000 C   0  0  0  0  0  0  0  0  0  0  0  0
   -4.9762   -2.8730    0.0000 C   0  0  0  0  0  0  0  0  0  0  0  0
   -5.5502   -1.4872    0.0000 C   0  0  0  0  0  0  0  0  0  0  0  0
   -5.7460    0.0000    0.0000 C   0  0  0  0  0  0  0  0  0  0  0  0
   -5.5502    1.4872    0.0000 C   0  0  0  0  0  0  0  0  0  0  0  0
   -4.9762    2.8730    0.0000 C   0  0  0  0  0  0  0  0  0  0  0  0
   -4.0630    4.0630    0.0000 C   0  0  0  0  0  0  0  0  0  0  0  0
   -2.8730    4.9762    0.0000 C   0  0  0  0  0  0  0  0  0  0  0  0
   -1.4872    5.5502    0.0000 C   0  0  0  0  0  0  0  0  0  0  0  0
    0.0000    5.7460    0.0000 C   0  0  0  0  0  0  0  0  0  0  0  0
    1.4872    5.5502    0.0000 C   0  0  0  0  0  0  0  0  0  0  0  0
    2.8730    4.9762    0.0000 C   0  0  0  0  0  0  0  0  0  0  0  0
    4.0630    4.0630    0.0000 C   0  0  0  0  0  0  0  0  0  0  0  0
    5.1237    5.1237    0.0000 C   0  0  0  0  0  0  0  0  0  0  0  0
    4.7354    6.5726    0.0000 O   0  0  0  0  0  0  0  0  0  0  0  0
    6.5726    4.7354    0.0000 N   0  0  0  0  0  0  0  0  0  0  0  0
    7.6332    5.7961    0.0000 C   0  0  0  0  0  0  0  0  0  0  0  0
    7.3986    7.2776    0.0000 N   0  0  0  0  0  0  0  0  0  0  0  0
    8.7351    7.9586    0.0000 N   0  0  0  0  0  0  0  0  0  0  0  0
    9.7957    6.8980    0.0000 N   0  0  0  0  0  0  0  0  0  0  0  0
    9.1148    5.5615    0.0000 N   0  0  0  0  0  0  0  0  0  0  0  0
    9.7957    4.2249    0.0000 C   0  0  0  0  0  0  0  0  0  0  0  0
    8.9788    2.9669    0.0000 C   0  0  0  0  0  0  0  0  0  0  0  0
    9.6598    1.6304    0.0000 C   0  0  0  0  0  0  0  0  0  0  0  0
   11.1577    1.5519    0.0000 C   0  0  0  0  0  0  0  0  0  0  0  0
   11.8387    0.2154    0.0000 C   0  0  0  0  0  0  0  0  0  0  0  0
   13.3366    0.1369    0.0000 O   0  0  0  0  0  0  0  0  0  0  0  0
   11.0217   -1.0426    0.0000 N   0  0  0  0  0  0  0  0  0  0  0  0
   11.7027   -2.3791    0.0000 O   0  0  0  0  0  0  0  0  0  0  0  0
   11.9747    2.8099    0.0000 N   0  0  0  0  0  0  0  0  0  0  0  0
   11.2937    4.1464    0.0000 C   0  0  0  0  0  0  0  0  0  0  0  0
   12.1106    5.4044    0.0000 O   0  0  0  0  0  0  0  0  0  0  0  0
    4.9762    2.8730    0.0000 C   0  0  0  0  0  0  0  0  0  0  0  0
    5.5502    1.4872    0.0000 C   0  0  0  0  0  0  0  0  0  0  0  0
  1  2  1  0
  2  3  2  0
  3  4  1  0
  4  5  2  0
  5  6  1  0
  6  7  2  0
  7  8  1  0
  8  9  2  0
  9 10  1  0
 10 11  2  0
 11 12  1  0
 12 13  2  0
 13 14  1  0
 14 15  2  0
 15 16  1  0
 16 17  2  0
 17 18  1  0
 18 19  2  0
 19 20  1  0
 20 21  2  0
 21 22  1  0
 22 23  2  0
 23 24  1  0
 24 25  2  0
 24 26  1  0
 26 27  1  0
 27 28  2  0
 28 29  1  0
 29 30  2  0
 30 31  1  0
 31 32  1  0
 32 33  2  0
 33 34  1  0
 34 35  2  0
 35 36  1  0
 36 37  2  0
 36 38  1  0
 38 39  1  0
 35 40  1  0
 40 41  1  0
 41 42  2  0
 23 43  1  0
 43 44  1  0
 44  2  1  0
 31 27  1  0
 41 32  1  0
M  END
>  <Title>  (565) 
idAAVSgen8

$$$$

     RDKit          2D

  2  1  0  0  0  0  0  0  0  0999 V2000
    0.0000    0.0000    0.0000 C   0  0  0  0  0  0  0  0  0  0  0  0
    1.2990    0.7500    0.0000 O   0  0  0  0  0  0  0  0  0  0  0  0
  1  2  1  0
M  END
>  <Title>  (566) 
idAAVTgen8

$$$$

     RDKit          2D

 27 30  0  0  0  0  0  0  0  0999 V2000
   -1.2990    4.2098    0.0000 C   0  0  0  0  0  0  0  0  0  0  0  0
   -0.0000    3.4598    0.0000 O   0  0  0  0  0  0  0  0  0  0  0  0
   -0.0000    1.9598    0.0000 C   0  0  0  0  0  0  0  0  0  0  0  0
   -1.3858    1.3858    0.0000 C   0  0  0  0  0  0  0  0  0  0  0  0
   -1.9598    0.0000    0.0000 C   0  0  0  0  0  0  0  0  0  0  0  0
   -1.3858   -1.3858    0.0000 C   0  0  0  0  0  0  0  0  0  0  0  0
   -2.4465   -2.4465    0.0000 C   0  0  0  0  0  0  0  0  0  0  0  0
   -2.2118   -3.9280    0.0000 N   0  0  0  0  0  0  0  0  0  0  0  0
   -3.5483   -4.6090    0.0000 N   0  0  0  0  0  0  0  0  0  0  0  0
   -4.6090   -3.5483    0.0000 N   0  0  0  0  0  0  0  0  0  0  0  0
   -3.9280   -2.2118    0.0000 N   0  0  0  0  0  0  0  0  0  0  0  0
   -4.6090   -0.8753    0.0000 C   0  0  0  0  0  0  0  0  0  0  0  0
   -3.7920    0.3827    0.0000 C   0  0  0  0  0  0  0  0  0  0  0  0
   -4.4730    1.7192    0.0000 C   0  0  0  0  0  0  0  0  0  0  0  0
   -5.9710    1.7977    0.0000 C   0  0  0  0  0  0  0  0  0  0  0  0
   -6.7879    0.5397    0.0000 N   0  0  0  0  0  0  0  0  0  0  0  0
   -6.1069   -0.7968    0.0000 C   0  0  0  0  0  0  0  0  0  0  0  0
   -6.9239   -2.0548    0.0000 N   0  0  0  0  0  0  0  0  0  0  0  0
   -6.3863   -3.4552    0.0000 N   0  0  0  0  0  0  0  0  0  0  0  0
   -7.5521   -4.3992    0.0000 N   0  0  0  0  0  0  0  0  0  0  0  0
   -8.8101   -3.5822    0.0000 N   0  0  0  0  0  0  0  0  0  0  0  0
   -8.4218   -2.1333    0.0000 N   0  0  0  0  0  0  0  0  0  0  0  0
    0.0000   -1.9598    0.0000 C   0  0  0  0  0  0  0  0  0  0  0  0
    0.0000   -3.4598    0.0000 C   0  0  0  0  0  0  0  0  0  0  0  0
    1.3858   -1.3858    0.0000 C   0  0  0  0  0  0  0  0  0  0  0  0
    1.9598    0.0000    0.0000 C   0  0  0  0  0  0  0  0  0  0  0  0
    1.3858    1.3858    0.0000 C   0  0  0  0  0  0  0  0  0  0  0  0
  1  2  1  0
  2  3  1  0
  3  4  2  0
  4  5  1  0
  5  6  2  0
  6  7  1  0
  7  8  2  0
  8  9  1  0
  9 10  2  0
 10 11  1  0
 11 12  1  0
 12 13  2  0
 13 14  1  0
 14 15  2  0
 15 16  1  0
 16 17  2  0
 17 18  1  0
 18 19  1  0
 19 20  2  0
 20 21  1  0
 21 22  2  0
  6 23  1  0
 23 24  1  0
 23 25  2  0
 25 26  1  0
 26 27  2  0
 27  3  1  0
 11  7  1  0
 17 12  1  0
 22 18  1  0
M  END
>  <Title>  (567) 
idAAVUgen8

$$$$

     RDKit          2D

 43 49  0  0  0  0  0  0  0  0999 V2000
    3.7500   -1.2990    0.0000 C   0  0  0  0  0  0  0  0  0  0  0  0
    3.0000    0.0000    0.0000 O   0  0  0  0  0  0  0  0  0  0  0  0
    1.5000    0.0000    0.0000 C   0  0  0  0  0  0  0  0  0  0  0  0
    0.7500   -1.2990    0.0000 C   0  0  0  0  0  0  0  0  0  0  0  0
   -0.7500   -1.2990    0.0000 C   0  0  0  0  0  0  0  0  0  0  0  0
   -1.5000    0.0000    0.0000 C   0  0  0  0  0  0  0  0  0  0  0  0
   -3.0000    0.0000    0.0000 C   0  0  0  0  0  0  0  0  0  0  0  0
   -3.8817   -1.2135    0.0000 N   0  0  0  0  0  0  0  0  0  0  0  0
   -5.3083   -0.7500    0.0000 N   0  0  0  0  0  0  0  0  0  0  0  0
   -5.3083    0.7500    0.0000 N   0  0  0  0  0  0  0  0  0  0  0  0
   -3.8817    1.2135    0.0000 N   0  0  0  0  0  0  0  0  0  0  0  0
   -3.4182    2.6401    0.0000 C   0  0  0  0  0  0  0  0  0  0  0  0
   -1.9509    2.9520    0.0000 C   0  0  0  0  0  0  0  0  0  0  0  0
   -1.4874    4.3786    0.0000 C   0  0  0  0  0  0  0  0  0  0  0  0
   -2.4911    5.4933    0.0000 C   0  0  0  0  0  0  0  0  0  0  0  0
   -2.0276    6.9199    0.0000 C   0  0  0  0  0  0  0  0  0  0  0  0
   -2.9093    8.1334    0.0000 N   0  0  0  0  0  0  0  0  0  0  0  0
   -2.0276    9.3469    0.0000 N   0  0  0  0  0  0  0  0  0  0  0  0
   -0.6010    8.8834    0.0000 N   0  0  0  0  0  0  0  0  0  0  0  0
   -0.6010    7.3834    0.0000 N   0  0  0  0  0  0  0  0  0  0  0  0
    0.6125    6.5017    0.0000 C   0  0  0  0  0  0  0  0  0  0  0  0
    0.4557    5.0099    0.0000 C   0  0  0  0  0  0  0  0  0  0  0  0
    1.6693    4.1283    0.0000 C   0  0  0  0  0  0  0  0  0  0  0  0
    3.0396    4.7384    0.0000 C   0  0  0  0  0  0  0  0  0  0  0  0
    4.2531    3.8567    0.0000 C   0  0  0  0  0  0  0  0  0  0  0  0
    4.0963    2.3649    0.0000 C   0  0  0  0  0  0  0  0  0  0  0  0
    5.3098    1.4832    0.0000 N   0  0  0  0  0  0  0  0  0  0  0  0
    6.6802    2.0933    0.0000 N   0  0  0  0  0  0  0  0  0  0  0  0
    6.8370    3.5851    0.0000 N   0  0  0  0  0  0  0  0  0  0  0  0
    5.6234    4.4668    0.0000 N   0  0  0  0  0  0  0  0  0  0  0  0
    3.1964    6.2301    0.0000 C   0  0  0  0  0  0  0  0  0  0  0  0
    1.9829    7.1118    0.0000 C   0  0  0  0  0  0  0  0  0  0  0  0
    2.1396    8.6036    0.0000 C   0  0  0  0  0  0  0  0  0  0  0  0
    3.5100    9.2137    0.0000 C   0  0  0  0  0  0  0  0  0  0  0  0
    3.6668   10.7055    0.0000 C   0  0  0  0  0  0  0  0  0  0  0  0
    2.4532   11.5872    0.0000 C   0  0  0  0  0  0  0  0  0  0  0  0
    1.0829   10.9771    0.0000 C   0  0  0  0  0  0  0  0  0  0  0  0
    0.9261    9.4853    0.0000 C   0  0  0  0  0  0  0  0  0  0  0  0
   -3.9583    5.1814    0.0000 C   0  0  0  0  0  0  0  0  0  0  0  0
   -4.4218    3.7548    0.0000 C   0  0  0  0  0  0  0  0  0  0  0  0
   -0.7500    1.2990    0.0000 C   0  0  0  0  0  0  0  0  0  0  0  0
    0.7500    1.2990    0.0000 C   0  0  0  0  0  0  0  0  0  0  0  0
    1.5000    2.5981    0.0000 C   0  0  0  0  0  0  0  0  0  0  0  0
  1  2  1  0
  2  3  1  0
  3  4  2  0
  4  5  1  0
  5  6  2  0
  6  7  1  0
  7  8  2  0
  8  9  1  0
  9 10  2  0
 10 11  1  0
 11 12  1  0
 12 13  2  0
 13 14  1  0
 14 15  2  0
 15 16  1  0
 16 17  2  0
 17 18  1  0
 18 19  2  0
 19 20  1  0
 20 21  1  0
 21 22  2  0
 22 23  1  0
 23 24  2  0
 24 25  1  0
 25 26  2  0
 26 27  1  0
 27 28  2  0
 28 29  1  0
 29 30  2  0
 24 31  1  0
 31 32  2  0
 32 33  1  0
 33 34  2  0
 34 35  1  0
 35 36  2  0
 36 37  1  0
 37 38  2  0
 15 39  1  0
 39 40  2  0
  6 41  1  0
 41 42  2  0
 42 43  1  0
 42  3  1  0
 11  7  1  0
 40 12  1  0
 20 16  1  0
 32 21  1  0
 38 33  1  0
 30 25  1  0
M  END
>  <Title>  (568) 
idAAVVgen8

$$$$

     RDKit          2D

 42 47  0  0  0  0  0  0  0  0999 V2000
    3.0000    0.0000    0.0000 C   0  0  0  0  0  0  0  0  0  0  0  0
    1.5000    0.0000    0.0000 C   0  0  0  0  0  0  0  0  0  0  0  0
    0.7500   -1.2990    0.0000 C   0  0  0  0  0  0  0  0  0  0  0  0
   -0.7500   -1.2990    0.0000 C   0  0  0  0  0  0  0  0  0  0  0  0
   -1.5000    0.0000    0.0000 C   0  0  0  0  0  0  0  0  0  0  0  0
   -3.0000    0.0000    0.0000 C   0  0  0  0  0  0  0  0  0  0  0  0
   -3.7500   -1.2990    0.0000 O   0  0  0  0  0  0  0  0  0  0  0  0
   -3.7500    1.2990    0.0000 N   0  0  0  0  0  0  0  0  0  0  0  0
   -5.2500    1.2990    0.0000 C   0  0  0  0  0  0  0  0  0  0  0  0
   -6.1317    0.0855    0.0000 N   0  0  0  0  0  0  0  0  0  0  0  0
   -7.5583    0.5490    0.0000 N   0  0  0  0  0  0  0  0  0  0  0  0
   -7.5583    2.0490    0.0000 N   0  0  0  0  0  0  0  0  0  0  0  0
   -6.1317    2.5126    0.0000 N   0  0  0  0  0  0  0  0  0  0  0  0
   -5.6682    3.9391    0.0000 C   0  0  0  0  0  0  0  0  0  0  0  0
   -6.5498    5.1527    0.0000 C   0  0  0  0  0  0  0  0  0  0  0  0
   -5.6682    6.3662    0.0000 C   0  0  0  0  0  0  0  0  0  0  0  0
   -4.2416    5.9027    0.0000 C   0  0  0  0  0  0  0  0  0  0  0  0
   -3.0280    6.7844    0.0000 C   0  0  0  0  0  0  0  0  0  0  0  0
   -3.1848    8.2761    0.0000 O   0  0  0  0  0  0  0  0  0  0  0  0
   -1.6577    6.1742    0.0000 N   0  0  0  0  0  0  0  0  0  0  0  0
   -0.4442    7.0559    0.0000 C   0  0  0  0  0  0  0  0  0  0  0  0
   -0.4442    8.5559    0.0000 N   0  0  0  0  0  0  0  0  0  0  0  0
    0.9824    9.0195    0.0000 N   0  0  0  0  0  0  0  0  0  0  0  0
    1.8641    7.8059    0.0000 N   0  0  0  0  0  0  0  0  0  0  0  0
    0.9824    6.5924    0.0000 N   0  0  0  0  0  0  0  0  0  0  0  0
    1.4459    5.1658    0.0000 N   0  0  0  0  0  0  0  0  0  0  0  0
    0.4422    4.0511    0.0000 N   0  0  0  0  0  0  0  0  0  0  0  0
    0.9057    2.6245    0.0000 N   0  0  0  0  0  0  0  0  0  0  0  0
    2.3730    2.3126    0.0000 N   0  0  0  0  0  0  0  0  0  0  0  0
    3.3767    3.4274    0.0000 N   0  0  0  0  0  0  0  0  0  0  0  0
    2.9131    4.8539    0.0000 N   0  0  0  0  0  0  0  0  0  0  0  0
    3.9168    5.9687    0.0000 C   0  0  0  0  0  0  0  0  0  0  0  0
    5.3841    5.6568    0.0000 C   0  0  0  0  0  0  0  0  0  0  0  0
    6.3877    6.7715    0.0000 C   0  0  0  0  0  0  0  0  0  0  0  0
    5.9242    8.1981    0.0000 C   0  0  0  0  0  0  0  0  0  0  0  0
    4.4570    8.5100    0.0000 C   0  0  0  0  0  0  0  0  0  0  0  0
    3.4533    7.3952    0.0000 C   0  0  0  0  0  0  0  0  0  0  0  0
   -4.2416    4.4027    0.0000 C   0  0  0  0  0  0  0  0  0  0  0  0
   -3.0280    3.5210    0.0000 O   0  0  0  0  0  0  0  0  0  0  0  0
   -0.7500    1.2990    0.0000 C   0  0  0  0  0  0  0  0  0  0  0  0
   -1.5000    2.5981    0.0000 O   0  0  0  0  0  0  0  0  0  0  0  0
    0.7500    1.2990    0.0000 N   0  0  0  0  0  0  0  0  0  0  0  0
  1  2  1  0
  2  3  2  0
  3  4  1  0
  4  5  2  0
  5  6  1  0
  6  7  2  0
  6  8  1  0
  8  9  1  0
  9 10  2  0
 10 11  1  0
 11 12  2  0
 12 13  1  0
 13 14  1  0
 14 15  2  0
 15 16  1  0
 16 17  2  0
 17 18  1  0
 18 19  2  0
 18 20  1  0
 20 21  1  0
 21 22  2  0
 22 23  1  0
 23 24  2  0
 24 25  1  0
 25 26  1  0
 26 27  1  0
 27 28  2  0
 28 29  1  0
 29 30  2  0
 30 31  1  0
 31 32  1  0
 32 33  2  0
 33 34  1  0
 34 35  2  0
 35 36  1  0
 36 37  2  0
 17 38  1  0
 38 39  2  0
  5 40  1  0
 40 41  2  0
 40 42  1  0
 42  2  1  0
 13  9  1  0
 38 14  1  0
 25 21  1  0
 31 26  1  0
 37 32  1  0
M  END
>  <Title>  (569) 
idAAVWgen8

$$$$

     RDKit          2D

 37 42  0  0  0  0  0  0  0  0999 V2000
  -12.2839    4.0392    0.0000 C   0  0  0  0  0  0  0  0  0  0  0  0
  -10.9525    4.7302    0.0000 C   0  0  0  0  0  0  0  0  0  0  0  0
  -10.8852    6.2287    0.0000 C   0  0  0  0  0  0  0  0  0  0  0  0
   -9.5538    6.9196    0.0000 C   0  0  0  0  0  0  0  0  0  0  0  0
   -8.2897    6.1121    0.0000 C   0  0  0  0  0  0  0  0  0  0  0  0
   -6.9584    6.8031    0.0000 C   0  0  0  0  0  0  0  0  0  0  0  0
   -6.8911    8.3016    0.0000 O   0  0  0  0  0  0  0  0  0  0  0  0
   -5.6943    5.9956    0.0000 N   0  0  0  0  0  0  0  0  0  0  0  0
   -4.3629    6.6865    0.0000 C   0  0  0  0  0  0  0  0  0  0  0  0
   -4.1393    8.1698    0.0000 N   0  0  0  0  0  0  0  0  0  0  0  0
   -2.6596    8.4155    0.0000 N   0  0  0  0  0  0  0  0  0  0  0  0
   -1.9686    7.0841    0.0000 N   0  0  0  0  0  0  0  0  0  0  0  0
   -3.0213    6.0156    0.0000 N   0  0  0  0  0  0  0  0  0  0  0  0
   -2.7756    4.5358    0.0000 C   0  0  0  0  0  0  0  0  0  0  0  0
   -3.9342    3.5831    0.0000 C   0  0  0  0  0  0  0  0  0  0  0  0
   -3.6885    2.1034    0.0000 C   0  0  0  0  0  0  0  0  0  0  0  0
   -2.2841    1.5763    0.0000 C   0  0  0  0  0  0  0  0  0  0  0  0
   -2.4186    3.0703    0.0000 C   0  0  0  0  0  0  0  0  0  0  0  0
   -1.3344    4.1069    0.0000 C   0  0  0  0  0  0  0  0  0  0  0  0
    0.1520    3.9056    0.0000 C   0  0  0  0  0  0  0  0  0  0  0  0
    0.9784    5.1574    0.0000 O   0  0  0  0  0  0  0  0  0  0  0  0
    0.9214    2.6179    0.0000 C   0  0  0  0  0  0  0  0  0  0  0  0
    2.4153    2.7523    0.0000 C   0  0  0  0  0  0  0  0  0  0  0  0
    3.0459    4.1134    0.0000 C   0  0  0  0  0  0  0  0  0  0  0  0
    4.5398    4.2478    0.0000 C   0  0  0  0  0  0  0  0  0  0  0  0
    5.3092    5.5355    0.0000 C   0  0  0  0  0  0  0  0  0  0  0  0
    6.7716    5.2017    0.0000 C   0  0  0  0  0  0  0  0  0  0  0  0
    6.9060    3.7078    0.0000 C   0  0  0  0  0  0  0  0  0  0  0  0
    5.5267    3.1182    0.0000 C   0  0  0  0  0  0  0  0  0  0  0  0
    0.3943    1.2135    0.0000 N   0  0  0  0  0  0  0  0  0  0  0  0
    1.2760    0.0000    0.0000 N   0  0  0  0  0  0  0  0  0  0  0  0
    0.3943   -1.2135    0.0000 N   0  0  0  0  0  0  0  0  0  0  0  0
   -1.0323   -0.7500    0.0000 N   0  0  0  0  0  0  0  0  0  0  0  0
   -1.0323    0.7500    0.0000 C   0  0  0  0  0  0  0  0  0  0  0  0
   -8.3570    4.6136    0.0000 N   0  0  0  0  0  0  0  0  0  0  0  0
   -9.6884    3.9227    0.0000 C   0  0  0  0  0  0  0  0  0  0  0  0
   -9.7557    2.4242    0.0000 O   0  0  0  0  0  0  0  0  0  0  0  0
  1  2  1  0
  2  3  2  0
  3  4  1  0
  4  5  2  0
  5  6  1  0
  6  7  2  0
  6  8  1  0
  8  9  1  0
  9 10  2  0
 10 11  1  0
 11 12  2  0
 12 13  1  0
 13 14  1  0
 14 15  2  0
 15 16  1  0
 16 17  2  0
 17 18  1  0
 18 19  2  0
 19 20  1  0
 20 21  2  0
 20 22  1  0
 22 23  2  3
 23 24  1  0
 24 25  2  3
 25 26  1  0
 26 27  2  0
 27 28  1  0
 28 29  2  0
 22 30  1  0
 30 31  1  0
 31 32  2  0
 32 33  1  0
 33 34  2  0
  5 35  1  0
 35 36  1  0
 36 37  2  0
 36  2  1  0
 13  9  1  0
 19 14  1  0
 29 25  1  0
 34 30  1  0
 34 17  1  0
M  END
>  <Title>  (570) 
idAAVXgen8

$$$$

     RDKit          2D

 30 33  0  0  0  0  0  0  0  0999 V2000
    3.0000    0.0000    0.0000 C   0  0  0  0  0  0  0  0  0  0  0  0
    1.5000    0.0000    0.0000 C   0  0  0  0  0  0  0  0  0  0  0  0
    0.7500   -1.2990    0.0000 C   0  0  0  0  0  0  0  0  0  0  0  0
   -0.7500   -1.2990    0.0000 C   0  0  0  0  0  0  0  0  0  0  0  0
   -1.5000    0.0000    0.0000 C   0  0  0  0  0  0  0  0  0  0  0  0
   -3.0000    0.0000    0.0000 C   0  0  0  0  0  0  0  0  0  0  0  0
   -3.8817   -1.2135    0.0000 N   0  0  0  0  0  0  0  0  0  0  0  0
   -5.3083   -0.7500    0.0000 N   0  0  0  0  0  0  0  0  0  0  0  0
   -5.3083    0.7500    0.0000 N   0  0  0  0  0  0  0  0  0  0  0  0
   -3.8817    1.2135    0.0000 N   0  0  0  0  0  0  0  0  0  0  0  0
   -3.4182    2.6401    0.0000 C   0  0  0  0  0  0  0  0  0  0  0  0
   -1.9509    2.9520    0.0000 C   0  0  0  0  0  0  0  0  0  0  0  0
   -1.4874    4.3786    0.0000 C   0  0  0  0  0  0  0  0  0  0  0  0
   -2.4911    5.4933    0.0000 C   0  0  0  0  0  0  0  0  0  0  0  0
   -3.9583    5.1814    0.0000 C   0  0  0  0  0  0  0  0  0  0  0  0
   -4.4218    3.7548    0.0000 C   0  0  0  0  0  0  0  0  0  0  0  0
   -5.8891    3.4430    0.0000 C   0  0  0  0  0  0  0  0  0  0  0  0
   -6.3526    2.0164    0.0000 C   0  0  0  0  0  0  0  0  0  0  0  0
   -7.8198    1.7045    0.0000 C   0  0  0  0  0  0  0  0  0  0  0  0
   -8.8235    2.8192    0.0000 C   0  0  0  0  0  0  0  0  0  0  0  0
  -10.2907    2.5074    0.0000 C   0  0  0  0  0  0  0  0  0  0  0  0
  -11.2944    3.6221    0.0000 O   0  0  0  0  0  0  0  0  0  0  0  0
  -10.7543    1.0808    0.0000 N   0  0  0  0  0  0  0  0  0  0  0  0
  -12.2215    0.7689    0.0000 O   0  0  0  0  0  0  0  0  0  0  0  0
   -8.3600    4.2458    0.0000 N   0  0  0  0  0  0  0  0  0  0  0  0
   -6.8928    4.5577    0.0000 C   0  0  0  0  0  0  0  0  0  0  0  0
   -6.4292    5.9843    0.0000 O   0  0  0  0  0  0  0  0  0  0  0  0
   -0.7500    1.2990    0.0000 N   0  0  0  0  0  0  0  0  0  0  0  0
    0.7500    1.2990    0.0000 C   0  0  0  0  0  0  0  0  0  0  0  0
    1.5000    2.5981    0.0000 O   0  0  0  0  0  0  0  0  0  0  0  0
  1  2  1  0
  2  3  2  0
  3  4  1  0
  4  5  2  0
  5  6  1  0
  6  7  2  0
  7  8  1  0
  8  9  2  0
  9 10  1  0
 10 11  1  0
 11 12  1  0
 12 13  1  0
 13 14  1  0
 14 15  1  0
 15 16  1  0
 16 17  1  0
 17 18  2  0
 18 19  1  0
 19 20  2  0
 20 21  1  0
 21 22  2  0
 21 23  1  0
 23 24  1  0
 20 25  1  0
 25 26  1  0
 26 27  2  0
  5 28  1  0
 28 29  1  0
 29 30  2  0
 29  2  1  0
 10  6  1  0
 16 11  1  0
 26 17  1  0
M  END
>  <Title>  (571) 
idAAVYgen8

$$$$

     RDKit          2D

 24 25  0  0  0  0  0  0  0  0999 V2000
    3.6929    0.0000    0.0000 C   0  0  0  0  0  0  0  0  0  0  0  0
    2.1929    0.0000    0.0000 C   0  0  0  0  0  0  0  0  0  0  0  0
    1.6798    1.4095    0.0000 C   0  0  0  0  0  0  0  0  0  0  0  0
    0.3808    2.1595    0.0000 C   0  0  0  0  0  0  0  0  0  0  0  0
   -1.0964    1.8991    0.0000 C   0  0  0  0  0  0  0  0  0  0  0  0
   -2.0606    0.7500    0.0000 C   0  0  0  0  0  0  0  0  0  0  0  0
   -2.0606   -0.7500    0.0000 C   0  0  0  0  0  0  0  0  0  0  0  0
   -1.0964   -1.8991    0.0000 C   0  0  0  0  0  0  0  0  0  0  0  0
    0.3808   -2.1595    0.0000 C   0  0  0  0  0  0  0  0  0  0  0  0
    1.6798   -1.4095    0.0000 N   0  0  0  0  0  0  0  0  0  0  0  0
    2.8289   -2.3737    0.0000 C   0  0  0  0  0  0  0  0  0  0  0  0
    2.5684   -3.8509    0.0000 C   0  0  0  0  0  0  0  0  0  0  0  0
    3.7175   -4.8151    0.0000 C   0  0  0  0  0  0  0  0  0  0  0  0
    3.4570   -6.2923    0.0000 C   0  0  0  0  0  0  0  0  0  0  0  0
    4.6061   -7.2565    0.0000 C   0  0  0  0  0  0  0  0  0  0  0  0
    4.3456   -8.7337    0.0000 C   0  0  0  0  0  0  0  0  0  0  0  0
    5.4947   -9.6979    0.0000 C   0  0  0  0  0  0  0  0  0  0  0  0
    6.8619   -9.0810    0.0000 O   0  0  0  0  0  0  0  0  0  0  0  0
    8.1967   -9.7653    0.0000 C   0  0  0  0  0  0  0  0  0  0  0  0
    8.4940  -11.2355    0.0000 C   0  0  0  0  0  0  0  0  0  0  0  0
    7.5298  -12.3846    0.0000 C   0  0  0  0  0  0  0  0  0  0  0  0
    6.0302  -12.3472    0.0000 C   0  0  0  0  0  0  0  0  0  0  0  0
    5.1245  -11.1515    0.0000 C   0  0  0  0  0  0  0  0  0  0  0  0
    3.6543  -11.4487    0.0000 O   0  0  0  0  0  0  0  0  0  0  0  0
  1  2  1  0
  2  3  2  0
  3  4  1  0
  4  5  2  0
  5  6  2  0
  6  7  2  0
  7  8  1  0
  8  9  1  0
  9 10  1  0
 10 11  1  0
 11 12  1  0
 12 13  1  0
 13 14  1  0
 14 15  1  0
 15 16  1  0
 16 17  1  0
 17 18  1  0
 18 19  1  0
 19 20  1  0
 20 21  2  0
 21 22  1  0
 22 23  2  0
 23 24  1  0
 10  2  1  0
 23 17  1  0
M  END
>  <Title>  (572) 
idAAVZgen8

$$$$

     RDKit          2D

 13 13  0  0  0  0  0  0  0  0999 V2000
    3.9271    0.0000    0.0000 C   0  0  0  0  0  0  0  0  0  0  0  0
    2.4271    0.0000    0.0000 C   0  0  0  0  0  0  0  0  0  0  0  0
    1.9635   -1.4266    0.0000 C   0  0  0  0  0  0  0  0  0  0  0  0
    0.7500   -2.3083    0.0000 C   0  0  0  0  0  0  0  0  0  0  0  0
   -0.7500   -2.3083    0.0000 C   0  0  0  0  0  0  0  0  0  0  0  0
   -1.9635   -1.4266    0.0000 C   0  0  0  0  0  0  0  0  0  0  0  0
   -3.1771   -2.3083    0.0000 N   0  0  0  0  0  0  0  0  0  0  0  0
   -2.4271    0.0000    0.0000 C   0  0  0  0  0  0  0  0  0  0  0  0
   -3.9271    0.0000    0.0000 F   0  0  0  0  0  0  0  0  0  0  0  0
   -1.9635    1.4266    0.0000 N   0  0  0  0  0  0  0  0  0  0  0  0
   -0.7500    2.3083    0.0000 N   0  0  0  0  0  0  0  0  0  0  0  0
    0.7500    2.3083    0.0000 N   0  0  0  0  0  0  0  0  0  0  0  0
    1.9635    1.4266    0.0000 N   0  0  0  0  0  0  0  0  0  0  0  0
  1  2  1  0
  2  3  2  0
  3  4  1  0
  4  5  2  0
  5  6  1  0
  6  7  1  0
  6  8  2  0
  8  9  1  0
  8 10  1  0
 10 11  2  0
 11 12  1  0
 12 13  2  0
 13  2  1  0
M  END
>  <Title>  (573) 
idAAWAgen8

$$$$

     RDKit          2D

 22 24  0  0  0  0  0  0  0  0999 V2000
    3.7500   -1.2990    0.0000 C   0  0  0  0  0  0  0  0  0  0  0  0
    3.0000    0.0000    0.0000 O   0  0  0  0  0  0  0  0  0  0  0  0
    1.5000    0.0000    0.0000 C   0  0  0  0  0  0  0  0  0  0  0  0
    0.7500   -1.2990    0.0000 C   0  0  0  0  0  0  0  0  0  0  0  0
   -0.7500   -1.2990    0.0000 C   0  0  0  0  0  0  0  0  0  0  0  0
   -1.5000    0.0000    0.0000 C   0  0  0  0  0  0  0  0  0  0  0  0
   -3.0000    0.0000    0.0000 N   0  0  0  0  0  0  0  0  0  0  0  0
   -3.8817   -1.2135    0.0000 N   0  0  0  0  0  0  0  0  0  0  0  0
   -5.3083   -0.7500    0.0000 N   0  0  0  0  0  0  0  0  0  0  0  0
   -5.3083    0.7500    0.0000 N   0  0  0  0  0  0  0  0  0  0  0  0
   -3.8817    1.2135    0.0000 C   0  0  0  0  0  0  0  0  0  0  0  0
   -3.4182    2.6401    0.0000 C   0  0  0  0  0  0  0  0  0  0  0  0
   -1.9509    2.9520    0.0000 C   0  0  0  0  0  0  0  0  0  0  0  0
   -1.4874    4.3786    0.0000 C   0  0  0  0  0  0  0  0  0  0  0  0
   -2.4911    5.4933    0.0000 C   0  0  0  0  0  0  0  0  0  0  0  0
   -2.0276    6.9199    0.0000 C   0  0  0  0  0  0  0  0  0  0  0  0
   -3.9583    5.1814    0.0000 C   0  0  0  0  0  0  0  0  0  0  0  0
   -4.9620    6.2961    0.0000 O   0  0  0  0  0  0  0  0  0  0  0  0
   -4.4218    3.7548    0.0000 N   0  0  0  0  0  0  0  0  0  0  0  0
   -0.7500    1.2990    0.0000 N   0  0  0  0  0  0  0  0  0  0  0  0
    0.7500    1.2990    0.0000 C   0  0  0  0  0  0  0  0  0  0  0  0
    1.5000    2.5981    0.0000 O   0  0  0  0  0  0  0  0  0  0  0  0
  1  2  1  0
  2  3  1  0
  3  4  2  0
  4  5  1  0
  5  6  2  0
  6  7  1  0
  7  8  1  0
  8  9  2  0
  9 10  1  0
 10 11  2  0
 11 12  1  0
 12 13  2  0
 13 14  1  0
 14 15  2  0
 15 16  1  0
 15 17  1  0
 17 18  2  0
 17 19  1  0
  6 20  1  0
 20 21  1  0
 21 22  2  0
 21  3  1  0
 11  7  1  0
 19 12  1  0
M  END
>  <Title>  (574) 
idAAWBgen8

$$$$

     RDKit          2D

 18 18  0  0  0  0  0  0  0  0999 V2000
    5.6205   -1.2990    0.0000 C   0  0  0  0  0  0  0  0  0  0  0  0
    4.8705    0.0000    0.0000 O   0  0  0  0  0  0  0  0  0  0  0  0
    3.3705    0.0000    0.0000 C   0  0  0  0  0  0  0  0  0  0  0  0
    3.0367   -1.4624    0.0000 C   0  0  0  0  0  0  0  0  0  0  0  0
    2.1015   -2.6351    0.0000 C   0  0  0  0  0  0  0  0  0  0  0  0
    0.7500   -3.2860    0.0000 C   0  0  0  0  0  0  0  0  0  0  0  0
   -0.7500   -3.2860    0.0000 C   0  0  0  0  0  0  0  0  0  0  0  0
   -2.1015   -2.6351    0.0000 C   0  0  0  0  0  0  0  0  0  0  0  0
   -3.0367   -1.4624    0.0000 C   0  0  0  0  0  0  0  0  0  0  0  0
   -3.3705    0.0000    0.0000 C   0  0  0  0  0  0  0  0  0  0  0  0
   -3.0367    1.4624    0.0000 C   0  0  0  0  0  0  0  0  0  0  0  0
   -2.1015    2.6351    0.0000 C   0  0  0  0  0  0  0  0  0  0  0  0
   -0.7500    3.2860    0.0000 C   0  0  0  0  0  0  0  0  0  0  0  0
    0.7500    3.2860    0.0000 C   0  0  0  0  0  0  0  0  0  0  0  0
    1.0838    4.7484    0.0000 C   0  0  0  0  0  0  0  0  0  0  0  0
    2.1015    2.6351    0.0000 C   0  0  0  0  0  0  0  0  0  0  0  0
    3.0367    3.8079    0.0000 O   0  0  0  0  0  0  0  0  0  0  0  0
    3.0367    1.4624    0.0000 N   0  0  0  0  0  0  0  0  0  0  0  0
  1  2  1  0
  2  3  1  0
  3  4  2  0
  4  5  1  0
  5  6  2  0
  6  7  1  0
  7  8  2  0
  8  9  1  0
  9 10  2  0
 10 11  1  0
 11 12  2  0
 12 13  1  0
 13 14  2  0
 14 15  1  0
 14 16  1  0
 16 17  2  0
 16 18  1  0
 18  3  1  0
M  END
>  <Title>  (575) 
idAAWCgen8

$$$$

     RDKit          2D

 41 46  0  0  0  0  0  0  0  0999 V2000
  -10.1624    4.2767    0.0000 C   0  0  0  0  0  0  0  0  0  0  0  0
   -8.9488    3.3950    0.0000 C   0  0  0  0  0  0  0  0  0  0  0  0
   -9.1056    1.9033    0.0000 C   0  0  0  0  0  0  0  0  0  0  0  0
   -7.8921    1.0216    0.0000 C   0  0  0  0  0  0  0  0  0  0  0  0
   -6.5218    1.6317    0.0000 C   0  0  0  0  0  0  0  0  0  0  0  0
   -5.3083    0.7500    0.0000 C   0  0  0  0  0  0  0  0  0  0  0  0
   -5.3083   -0.7500    0.0000 N   0  0  0  0  0  0  0  0  0  0  0  0
   -3.8817   -1.2135    0.0000 N   0  0  0  0  0  0  0  0  0  0  0  0
   -3.0000    0.0000    0.0000 N   0  0  0  0  0  0  0  0  0  0  0  0
   -3.8817    1.2135    0.0000 N   0  0  0  0  0  0  0  0  0  0  0  0
   -3.4182    2.6401    0.0000 C   0  0  0  0  0  0  0  0  0  0  0  0
   -4.2998    3.8536    0.0000 C   0  0  0  0  0  0  0  0  0  0  0  0
   -3.4182    5.0672    0.0000 N   0  0  0  0  0  0  0  0  0  0  0  0
   -1.9916    4.6036    0.0000 N   0  0  0  0  0  0  0  0  0  0  0  0
   -1.9916    3.1036    0.0000 N   0  0  0  0  0  0  0  0  0  0  0  0
   -0.7780    2.2220    0.0000 C   0  0  0  0  0  0  0  0  0  0  0  0
   -0.9348    0.7302    0.0000 C   0  0  0  0  0  0  0  0  0  0  0  0
    0.2787   -0.1515    0.0000 C   0  0  0  0  0  0  0  0  0  0  0  0
    1.6490    0.4586    0.0000 C   0  0  0  0  0  0  0  0  0  0  0  0
    2.8625   -0.4231    0.0000 C   0  0  0  0  0  0  0  0  0  0  0  0
    4.2329    0.1870    0.0000 C   0  0  0  0  0  0  0  0  0  0  0  0
    5.4464   -0.6946    0.0000 C   0  0  0  0  0  0  0  0  0  0  0  0
    6.8167   -0.0845    0.0000 C   0  0  0  0  0  0  0  0  0  0  0  0
    8.0302   -0.9662    0.0000 C   0  0  0  0  0  0  0  0  0  0  0  0
    9.4005   -0.3561    0.0000 C   0  0  0  0  0  0  0  0  0  0  0  0
   10.6141   -1.2378    0.0000 N   0  0  0  0  0  0  0  0  0  0  0  0
   11.9844   -0.6277    0.0000 N   0  0  0  0  0  0  0  0  0  0  0  0
   12.1412    0.8641    0.0000 N   0  0  0  0  0  0  0  0  0  0  0  0
   10.9277    1.7458    0.0000 N   0  0  0  0  0  0  0  0  0  0  0  0
    9.5573    1.1357    0.0000 N   0  0  0  0  0  0  0  0  0  0  0  0
    8.3438    2.0173    0.0000 C   0  0  0  0  0  0  0  0  0  0  0  0
    8.5006    3.5091    0.0000 C   0  0  0  0  0  0  0  0  0  0  0  0
    7.2871    4.3908    0.0000 C   0  0  0  0  0  0  0  0  0  0  0  0
    5.9168    3.7807    0.0000 C   0  0  0  0  0  0  0  0  0  0  0  0
    5.7600    2.2889    0.0000 C   0  0  0  0  0  0  0  0  0  0  0  0
    6.9735    1.4072    0.0000 C   0  0  0  0  0  0  0  0  0  0  0  0
    1.8058    1.9504    0.0000 C   0  0  0  0  0  0  0  0  0  0  0  0
    3.1761    2.5605    0.0000 O   0  0  0  0  0  0  0  0  0  0  0  0
    0.5923    2.8321    0.0000 N   0  0  0  0  0  0  0  0  0  0  0  0
   -6.3650    3.1235    0.0000 N   0  0  0  0  0  0  0  0  0  0  0  0
   -7.5785    4.0051    0.0000 C   0  0  0  0  0  0  0  0  0  0  0  0
  1  2  1  0
  2  3  2  0
  3  4  1  0
  4  5  2  0
  5  6  1  0
  6  7  2  0
  7  8  1  0
  8  9  2  0
  9 10  1  0
 10 11  1  0
 11 12  2  0
 12 13  1  0
 13 14  2  0
 14 15  1  0
 15 16  1  0
 16 17  2  0
 17 18  1  0
 18 19  2  0
 19 20  1  0
 20 21  2  3
 21 22  1  0
 22 23  2  3
 23 24  1  0
 24 25  2  3
 25 26  1  0
 26 27  1  0
 27 28  1  0
 28 29  2  0
 29 30  1  0
 30 31  1  0
 31 32  2  0
 32 33  1  0
 33 34  2  0
 34 35  1  0
 35 36  2  0
 19 37  1  0
 37 38  2  0
 37 39  1  0
  5 40  1  0
 40 41  1  0
 41  2  1  0
 10  6  1  0
 15 11  1  0
 39 16  1  0
 30 25  1  0
 36 31  1  0
M  END
>  <Title>  (576) 
idAAWDgen8

$$$$

     RDKit          2D

 25 28  0  0  0  0  0  0  0  0999 V2000
    3.0000    0.0000    0.0000 C   0  0  0  0  0  0  0  0  0  0  0  0
    1.5000    0.0000    0.0000 C   0  0  0  0  0  0  0  0  0  0  0  0
    0.7500   -1.2990    0.0000 C   0  0  0  0  0  0  0  0  0  0  0  0
   -0.7500   -1.2990    0.0000 C   0  0  0  0  0  0  0  0  0  0  0  0
   -1.5000    0.0000    0.0000 C   0  0  0  0  0  0  0  0  0  0  0  0
   -3.0000    0.0000    0.0000 N   0  0  0  0  0  0  0  0  0  0  0  0
   -3.7500    1.2990    0.0000 C   0  0  0  0  0  0  0  0  0  0  0  0
   -5.2500    1.2990    0.0000 C   0  0  0  0  0  0  0  0  0  0  0  0
   -6.0000    0.0000    0.0000 C   0  0  0  0  0  0  0  0  0  0  0  0
   -7.5000    0.0000    0.0000 C   0  0  0  0  0  0  0  0  0  0  0  0
   -8.3817   -1.2135    0.0000 N   0  0  0  0  0  0  0  0  0  0  0  0
   -9.8083   -0.7500    0.0000 N   0  0  0  0  0  0  0  0  0  0  0  0
   -9.8083    0.7500    0.0000 N   0  0  0  0  0  0  0  0  0  0  0  0
   -8.3817    1.2135    0.0000 N   0  0  0  0  0  0  0  0  0  0  0  0
   -7.9182    2.6401    0.0000 C   0  0  0  0  0  0  0  0  0  0  0  0
   -6.4509    2.9520    0.0000 C   0  0  0  0  0  0  0  0  0  0  0  0
   -5.9874    4.3786    0.0000 C   0  0  0  0  0  0  0  0  0  0  0  0
   -6.9911    5.4933    0.0000 C   0  0  0  0  0  0  0  0  0  0  0  0
   -8.4583    5.1814    0.0000 C   0  0  0  0  0  0  0  0  0  0  0  0
   -8.9218    3.7548    0.0000 C   0  0  0  0  0  0  0  0  0  0  0  0
   -5.2500   -1.2990    0.0000 C   0  0  0  0  0  0  0  0  0  0  0  0
   -6.0000   -2.5981    0.0000 O   0  0  0  0  0  0  0  0  0  0  0  0
   -3.7500   -1.2990    0.0000 N   0  0  0  0  0  0  0  0  0  0  0  0
   -0.7500    1.2990    0.0000 N   0  0  0  0  0  0  0  0  0  0  0  0
    0.7500    1.2990    0.0000 C   0  0  0  0  0  0  0  0  0  0  0  0
  1  2  1  0
  2  3  2  0
  3  4  1  0
  4  5  2  0
  5  6  1  0
  6  7  1  0
  7  8  2  0
  8  9  1  0
  9 10  1  0
 10 11  2  0
 11 12  1  0
 12 13  2  0
 13 14  1  0
 14 15  1  0
 15 16  2  0
 16 17  1  0
 17 18  2  0
 18 19  1  0
 19 20  2  0
  9 21  1  0
 21 22  2  0
 21 23  1  0
  5 24  1  0
 24 25  1  0
 25  2  1  0
 23  6  1  0
 14 10  1  0
 20 15  1  0
M  END
>  <Title>  (577) 
idAAWEgen8

$$$$

     RDKit          2D

 29 32  0  0  0  0  0  0  0  0999 V2000
    4.4429   -1.2990    0.0000 C   0  0  0  0  0  0  0  0  0  0  0  0
    3.6929    0.0000    0.0000 O   0  0  0  0  0  0  0  0  0  0  0  0
    2.1929    0.0000    0.0000 C   0  0  0  0  0  0  0  0  0  0  0  0
    1.6798    1.4095    0.0000 C   0  0  0  0  0  0  0  0  0  0  0  0
    0.3808    2.1595    0.0000 C   0  0  0  0  0  0  0  0  0  0  0  0
   -1.0964    1.8991    0.0000 C   0  0  0  0  0  0  0  0  0  0  0  0
   -2.0606    0.7500    0.0000 C   0  0  0  0  0  0  0  0  0  0  0  0
   -2.0606   -0.7500    0.0000 C   0  0  0  0  0  0  0  0  0  0  0  0
   -3.4701   -1.2630    0.0000 C   0  0  0  0  0  0  0  0  0  0  0  0
   -3.8836   -2.7049    0.0000 C   0  0  0  0  0  0  0  0  0  0  0  0
   -5.3827   -2.7573    0.0000 C   0  0  0  0  0  0  0  0  0  0  0  0
   -5.8957   -1.3477    0.0000 C   0  0  0  0  0  0  0  0  0  0  0  0
   -7.3376   -0.9343    0.0000 C   0  0  0  0  0  0  0  0  0  0  0  0
   -8.5196   -1.8578    0.0000 N   0  0  0  0  0  0  0  0  0  0  0  0
   -9.7632   -1.0190    0.0000 N   0  0  0  0  0  0  0  0  0  0  0  0
   -9.3497    0.4229    0.0000 N   0  0  0  0  0  0  0  0  0  0  0  0
   -7.8506    0.4753    0.0000 N   0  0  0  0  0  0  0  0  0  0  0  0
   -7.0119    1.7188    0.0000 C   0  0  0  0  0  0  0  0  0  0  0  0
   -5.5155    1.6142    0.0000 C   0  0  0  0  0  0  0  0  0  0  0  0
   -4.6767    2.8577    0.0000 N   0  0  0  0  0  0  0  0  0  0  0  0
   -5.3343    4.2059    0.0000 N   0  0  0  0  0  0  0  0  0  0  0  0
   -6.8306    4.3106    0.0000 N   0  0  0  0  0  0  0  0  0  0  0  0
   -7.6694    3.0670    0.0000 C   0  0  0  0  0  0  0  0  0  0  0  0
   -4.7137   -0.4242    0.0000 C   0  0  0  0  0  0  0  0  0  0  0  0
   -4.7661    1.0748    0.0000 O   0  0  0  0  0  0  0  0  0  0  0  0
   -1.0964   -1.8991    0.0000 N   0  0  0  0  0  0  0  0  0  0  0  0
    0.3808   -2.1595    0.0000 C   0  0  0  0  0  0  0  0  0  0  0  0
    0.6413   -3.6368    0.0000 O   0  0  0  0  0  0  0  0  0  0  0  0
    1.6798   -1.4095    0.0000 N   0  0  0  0  0  0  0  0  0  0  0  0
  1  2  1  0
  2  3  1  0
  3  4  2  0
  4  5  1  0
  5  6  2  0
  6  7  1  0
  7  8  2  0
  8  9  1  0
  9 10  2  0
 10 11  1  0
 11 12  2  0
 12 13  1  0
 13 14  2  0
 14 15  1  0
 15 16  2  0
 16 17  1  0
 17 18  1  0
 18 19  2  0
 19 20  1  0
 20 21  2  0
 21 22  1  0
 22 23  2  0
 12 24  1  0
 24 25  2  0
  8 26  1  0
 26 27  1  0
 27 28  2  0
 27 29  1  0
 29  3  1  0
 24  9  1  0
 17 13  1  0
 23 18  1  0
M  END
>  <Title>  (578) 
idAAWFgen8

$$$$

     RDKit          2D

 16 17  0  0  0  0  0  0  0  0999 V2000
    4.4712    5.3122    0.0000 C   0  0  0  0  0  0  0  0  0  0  0  0
    3.0919    4.7226    0.0000 C   0  0  0  0  0  0  0  0  0  0  0  0
    3.2264    3.2287    0.0000 C   0  0  0  0  0  0  0  0  0  0  0  0
    2.4570    1.9410    0.0000 C   0  0  0  0  0  0  0  0  0  0  0  0
    1.0777    1.3515    0.0000 C   0  0  0  0  0  0  0  0  0  0  0  0
    1.7286    0.0000    0.0000 C   0  0  0  0  0  0  0  0  0  0  0  0
    1.0777   -1.3515    0.0000 C   0  0  0  0  0  0  0  0  0  0  0  0
   -0.3846   -1.6852    0.0000 C   0  0  0  0  0  0  0  0  0  0  0  0
   -1.5574   -0.7500    0.0000 C   0  0  0  0  0  0  0  0  0  0  0  0
   -1.5574    0.7500    0.0000 C   0  0  0  0  0  0  0  0  0  0  0  0
   -0.3846    1.6852    0.0000 C   0  0  0  0  0  0  0  0  0  0  0  0
   -1.3716    2.8148    0.0000 C   0  0  0  0  0  0  0  0  0  0  0  0
   -1.5060    4.3088    0.0000 C   0  0  0  0  0  0  0  0  0  0  0  0
   -0.7367    5.5965    0.0000 C   0  0  0  0  0  0  0  0  0  0  0  0
    0.6426    6.1860    0.0000 C   0  0  0  0  0  0  0  0  0  0  0  0
    2.1050    5.8522    0.0000 C   0  0  0  0  0  0  0  0  0  0  0  0
  1  2  1  0
  2  3  2  0
  3  4  1  0
  4  5  2  0
  5  6  1  0
  6  7  2  0
  7  8  1  0
  8  9  2  0
  9 10  1  0
 10 11  2  0
 11 12  1  0
 12 13  1  0
 13 14  2  0
 14 15  1  0
 15 16  2  0
 16  2  1  0
 11  5  1  0
M  END
>  <Title>  (579) 
idAAWGgen8

$$$$

     RDKit          2D

 15 15  0  0  0  0  0  0  0  0999 V2000
    6.6478   -1.2990    0.0000 C   0  0  0  0  0  0  0  0  0  0  0  0
    5.1478   -1.2990    0.0000 O   0  0  0  0  0  0  0  0  0  0  0  0
    4.3978    0.0000    0.0000 C   0  0  0  0  0  0  0  0  0  0  0  0
    2.8978    0.0000    0.0000 C   0  0  0  0  0  0  0  0  0  0  0  0
    2.5095   -1.4489    0.0000 C   0  0  0  0  0  0  0  0  0  0  0  0
    1.4489   -2.5095    0.0000 C   0  0  0  0  0  0  0  0  0  0  0  0
   -0.0000   -2.8978    0.0000 C   0  0  0  0  0  0  0  0  0  0  0  0
   -1.4489   -2.5095    0.0000 C   0  0  0  0  0  0  0  0  0  0  0  0
   -2.5095   -1.4489    0.0000 C   0  0  0  0  0  0  0  0  0  0  0  0
   -2.8978    0.0000    0.0000 C   0  0  0  0  0  0  0  0  0  0  0  0
   -2.5095    1.4489    0.0000 C   0  0  0  0  0  0  0  0  0  0  0  0
   -1.4489    2.5095    0.0000 C   0  0  0  0  0  0  0  0  0  0  0  0
    0.0000    2.8978    0.0000 C   0  0  0  0  0  0  0  0  0  0  0  0
    1.4489    2.5095    0.0000 C   0  0  0  0  0  0  0  0  0  0  0  0
    2.5095    1.4489    0.0000 C   0  0  0  0  0  0  0  0  0  0  0  0
  1  2  1  0
  2  3  1  0
  3  4  1  0
  4  5  1  0
  5  6  1  0
  6  7  1  0
  7  8  1  0
  8  9  1  0
  9 10  1  0
 10 11  1  0
 11 12  1  0
 12 13  1  0
 13 14  1  0
 14 15  1  0
 15  4  1  0
M  END
>  <Title>  (580) 
idAAWHgen8

$$$$

     RDKit          2D

 34 38  0  0  0  0  0  0  0  0999 V2000
   -6.0000   -5.1962    0.0000 C   0  0  0  0  0  0  0  0  0  0  0  0
   -5.2500   -3.8971    0.0000 C   0  0  0  0  0  0  0  0  0  0  0  0
   -3.7500   -3.8971    0.0000 C   0  0  0  0  0  0  0  0  0  0  0  0
   -3.0000   -2.5981    0.0000 C   0  0  0  0  0  0  0  0  0  0  0  0
   -3.7500   -1.2990    0.0000 C   0  0  0  0  0  0  0  0  0  0  0  0
   -3.0000    0.0000    0.0000 C   0  0  0  0  0  0  0  0  0  0  0  0
   -1.5000    0.0000    0.0000 O   0  0  0  0  0  0  0  0  0  0  0  0
   -3.7500    1.2990    0.0000 N   0  0  0  0  0  0  0  0  0  0  0  0
   -5.2500    1.2990    0.0000 C   0  0  0  0  0  0  0  0  0  0  0  0
   -6.1317    0.0855    0.0000 N   0  0  0  0  0  0  0  0  0  0  0  0
   -7.5583    0.5490    0.0000 N   0  0  0  0  0  0  0  0  0  0  0  0
   -7.5583    2.0490    0.0000 N   0  0  0  0  0  0  0  0  0  0  0  0
   -6.1317    2.5126    0.0000 N   0  0  0  0  0  0  0  0  0  0  0  0
   -5.6682    3.9391    0.0000 C   0  0  0  0  0  0  0  0  0  0  0  0
   -6.5498    5.1527    0.0000 N   0  0  0  0  0  0  0  0  0  0  0  0
   -5.6682    6.3662    0.0000 N   0  0  0  0  0  0  0  0  0  0  0  0
   -4.2416    5.9027    0.0000 N   0  0  0  0  0  0  0  0  0  0  0  0
   -4.2416    4.4027    0.0000 N   0  0  0  0  0  0  0  0  0  0  0  0
   -3.0280    3.5210    0.0000 C   0  0  0  0  0  0  0  0  0  0  0  0
   -3.1848    2.0292    0.0000 C   0  0  0  0  0  0  0  0  0  0  0  0
   -1.9713    1.1475    0.0000 C   0  0  0  0  0  0  0  0  0  0  0  0
   -0.6010    1.7576    0.0000 C   0  0  0  0  0  0  0  0  0  0  0  0
   -0.4442    3.2494    0.0000 C   0  0  0  0  0  0  0  0  0  0  0  0
   -1.6577    4.1311    0.0000 C   0  0  0  0  0  0  0  0  0  0  0  0
   -1.5009    5.6229    0.0000 C   0  0  0  0  0  0  0  0  0  0  0  0
   -0.1306    6.2330    0.0000 C   0  0  0  0  0  0  0  0  0  0  0  0
    0.0262    7.7248    0.0000 C   0  0  0  0  0  0  0  0  0  0  0  0
   -1.1873    8.6064    0.0000 C   0  0  0  0  0  0  0  0  0  0  0  0
   -1.0306   10.0982    0.0000 C   0  0  0  0  0  0  0  0  0  0  0  0
   -2.5577    7.9963    0.0000 C   0  0  0  0  0  0  0  0  0  0  0  0
   -3.7712    8.8780    0.0000 O   0  0  0  0  0  0  0  0  0  0  0  0
   -2.7145    6.5046    0.0000 N   0  0  0  0  0  0  0  0  0  0  0  0
   -5.2500   -1.2990    0.0000 N   0  0  0  0  0  0  0  0  0  0  0  0
   -6.0000   -2.5981    0.0000 N   0  0  0  0  0  0  0  0  0  0  0  0
  1  2  1  0
  2  3  2  0
  3  4  1  0
  4  5  2  0
  5  6  1  0
  6  7  2  0
  6  8  1  0
  8  9  1  0
  9 10  2  0
 10 11  1  0
 11 12  2  0
 12 13  1  0
 13 14  1  0
 14 15  2  0
 15 16  1  0
 16 17  2  0
 17 18  1  0
 18 19  1  0
 19 20  1  0
 20 21  1  0
 21 22  1  0
 22 23  1  0
 23 24  1  0
 24 25  1  0
 25 26  2  0
 26 27  1  0
 27 28  2  0
 28 29  1  0
 28 30  1  0
 30 31  2  0
 30 32  1  0
  5 33  1  0
 33 34  2  0
 34  2  1  0
 13  9  1  0
 18 14  1  0
 24 19  1  0
 32 25  1  0
M  END
>  <Title>  (581) 
idAAWIgen8

$$$$

     RDKit          2D

 40 44  0  0  0  0  0  0  0  0999 V2000
    7.2372    6.9916    0.0000 C   0  0  0  0  0  0  0  0  0  0  0  0
    6.3019    5.8189    0.0000 C   0  0  0  0  0  0  0  0  0  0  0  0
    6.8499    4.4226    0.0000 C   0  0  0  0  0  0  0  0  0  0  0  0
    5.9147    3.2498    0.0000 C   0  0  0  0  0  0  0  0  0  0  0  0
    4.4315    3.4734    0.0000 C   0  0  0  0  0  0  0  0  0  0  0  0
    3.4962    2.3006    0.0000 C   0  0  0  0  0  0  0  0  0  0  0  0
    4.0442    0.9043    0.0000 O   0  0  0  0  0  0  0  0  0  0  0  0
    2.0130    2.5242    0.0000 N   0  0  0  0  0  0  0  0  0  0  0  0
    1.0777    1.3515    0.0000 C   0  0  0  0  0  0  0  0  0  0  0  0
    1.7286    0.0000    0.0000 C   0  0  0  0  0  0  0  0  0  0  0  0
    1.0777   -1.3515    0.0000 C   0  0  0  0  0  0  0  0  0  0  0  0
   -0.3846   -1.6852    0.0000 N   0  0  0  0  0  0  0  0  0  0  0  0
   -1.5574   -0.7500    0.0000 N   0  0  0  0  0  0  0  0  0  0  0  0
   -1.5574    0.7500    0.0000 N   0  0  0  0  0  0  0  0  0  0  0  0
   -0.3846    1.6852    0.0000 N   0  0  0  0  0  0  0  0  0  0  0  0
   -0.7184    3.1476    0.0000 C   0  0  0  0  0  0  0  0  0  0  0  0
    0.3812    4.1679    0.0000 C   0  0  0  0  0  0  0  0  0  0  0  0
    0.0474    5.6303    0.0000 C   0  0  0  0  0  0  0  0  0  0  0  0
   -1.3860    6.0724    0.0000 C   0  0  0  0  0  0  0  0  0  0  0  0
   -1.7198    7.5348    0.0000 C   0  0  0  0  0  0  0  0  0  0  0  0
   -0.6202    8.5551    0.0000 C   0  0  0  0  0  0  0  0  0  0  0  0
   -0.9540   10.0175    0.0000 C   0  0  0  0  0  0  0  0  0  0  0  0
   -2.3873   10.4596    0.0000 C   0  0  0  0  0  0  0  0  0  0  0  0
   -3.4869    9.4393    0.0000 C   0  0  0  0  0  0  0  0  0  0  0  0
   -3.1531    7.9769    0.0000 C   0  0  0  0  0  0  0  0  0  0  0  0
   -2.4856    5.0522    0.0000 C   0  0  0  0  0  0  0  0  0  0  0  0
   -2.1518    3.5898    0.0000 C   0  0  0  0  0  0  0  0  0  0  0  0
   -3.2514    2.5695    0.0000 C   0  0  0  0  0  0  0  0  0  0  0  0
   -2.9176    1.1071    0.0000 C   0  0  0  0  0  0  0  0  0  0  0  0
   -4.0172    0.0868    0.0000 C   0  0  0  0  0  0  0  0  0  0  0  0
   -5.4505    0.5290    0.0000 C   0  0  0  0  0  0  0  0  0  0  0  0
   -6.5501   -0.4913    0.0000 C   0  0  0  0  0  0  0  0  0  0  0  0
   -7.9835   -0.0491    0.0000 O   0  0  0  0  0  0  0  0  0  0  0  0
   -6.2163   -1.9537    0.0000 N   0  0  0  0  0  0  0  0  0  0  0  0
   -7.3159   -2.9739    0.0000 O   0  0  0  0  0  0  0  0  0  0  0  0
   -5.7843    1.9914    0.0000 N   0  0  0  0  0  0  0  0  0  0  0  0
   -4.6847    3.0116    0.0000 C   0  0  0  0  0  0  0  0  0  0  0  0
   -5.0185    4.4740    0.0000 O   0  0  0  0  0  0  0  0  0  0  0  0
    3.8835    4.8697    0.0000 C   0  0  0  0  0  0  0  0  0  0  0  0
    4.8187    6.0424    0.0000 C   0  0  0  0  0  0  0  0  0  0  0  0
  1  2  1  0
  2  3  2  0
  3  4  1  0
  4  5  2  0
  5  6  1  0
  6  7  2  0
  6  8  1  0
  8  9  1  0
  9 10  2  0
 10 11  1  0
 11 12  2  0
 12 13  1  0
 13 14  2  0
 14 15  1  0
 15 16  1  0
 16 17  2  0
 17 18  1  0
 18 19  2  0
 19 20  1  0
 20 21  2  0
 21 22  1  0
 22 23  2  0
 23 24  1  0
 24 25  2  0
 19 26  1  0
 26 27  2  0
 27 28  1  0
 28 29  2  0
 29 30  1  0
 30 31  2  0
 31 32  1  0
 32 33  2  0
 32 34  1  0
 34 35  1  0
 31 36  1  0
 36 37  1  0
 37 38  2  0
  5 39  1  0
 39 40  2  0
 40  2  1  0
 15  9  1  0
 27 16  1  0
 37 28  1  0
 25 20  1  0
M  END
>  <Title>  (582) 
idAAWJgen8

$$$$

     RDKit          2D

  9  9  0  0  0  0  0  0  0  0999 V2000
    3.9786   -1.2990    0.0000 C   0  0  0  0  0  0  0  0  0  0  0  0
    3.2286   -0.0000    0.0000 O   0  0  0  0  0  0  0  0  0  0  0  0
    1.7286    0.0000    0.0000 C   0  0  0  0  0  0  0  0  0  0  0  0
    1.0777    1.3515    0.0000 C   0  0  0  0  0  0  0  0  0  0  0  0
   -0.3846    1.6852    0.0000 C   0  0  0  0  0  0  0  0  0  0  0  0
   -1.5574    0.7500    0.0000 C   0  0  0  0  0  0  0  0  0  0  0  0
   -1.5574   -0.7500    0.0000 C   0  0  0  0  0  0  0  0  0  0  0  0
   -0.3846   -1.6852    0.0000 C   0  0  0  0  0  0  0  0  0  0  0  0
    1.0777   -1.3515    0.0000 C   0  0  0  0  0  0  0  0  0  0  0  0
  1  2  1  0
  2  3  1  0
  3  4  2  0
  4  5  1  0
  5  6  2  0
  6  7  1  0
  7  8  2  0
  8  9  1  0
  9  3  1  0
M  END
>  <Title>  (583) 
idAAWKgen8

$$$$

     RDKit          2D

 11 12  0  0  0  0  0  0  0  0999 V2000
   -1.7979    5.5335    0.0000 C   0  0  0  0  0  0  0  0  0  0  0  0
   -1.3344    4.1069    0.0000 C   0  0  0  0  0  0  0  0  0  0  0  0
    0.1520    3.9056    0.0000 C   0  0  0  0  0  0  0  0  0  0  0  0
    0.9214    2.6179    0.0000 C   0  0  0  0  0  0  0  0  0  0  0  0
    0.3943    1.2135    0.0000 C   0  0  0  0  0  0  0  0  0  0  0  0
    1.2760    0.0000    0.0000 C   0  0  0  0  0  0  0  0  0  0  0  0
    0.3943   -1.2135    0.0000 C   0  0  0  0  0  0  0  0  0  0  0  0
   -1.0323   -0.7500    0.0000 C   0  0  0  0  0  0  0  0  0  0  0  0
   -1.0323    0.7500    0.0000 C   0  0  0  0  0  0  0  0  0  0  0  0
   -2.2841    1.5763    0.0000 C   0  0  0  0  0  0  0  0  0  0  0  0
   -2.4186    3.0703    0.0000 C   0  0  0  0  0  0  0  0  0  0  0  0
  1  2  1  0
  2  3  2  0
  3  4  1  0
  4  5  2  0
  5  6  1  0
  6  7  2  0
  7  8  1  0
  8  9  2  0
  9 10  1  0
 10 11  2  0
 11  2  1  0
  9  5  1  0
M  END
>  <Title>  (584) 
idAAWLgen8

$$$$

     RDKit          2D

 60 69  0  0  0  0  0  0  0  0999 V2000
    5.2964  -13.9524    0.0000 C   0  0  0  0  0  0  0  0  0  0  0  0
    3.9482  -13.2949    0.0000 C   0  0  0  0  0  0  0  0  0  0  0  0
    3.8436  -11.7985    0.0000 C   0  0  0  0  0  0  0  0  0  0  0  0
    2.4954  -11.1410    0.0000 C   0  0  0  0  0  0  0  0  0  0  0  0
    1.2519  -11.9798    0.0000 C   0  0  0  0  0  0  0  0  0  0  0  0
   -0.0963  -11.3222    0.0000 C   0  0  0  0  0  0  0  0  0  0  0  0
   -1.4208  -12.0264    0.0000 N   0  0  0  0  0  0  0  0  0  0  0  0
   -2.4998  -10.9844    0.0000 N   0  0  0  0  0  0  0  0  0  0  0  0
   -1.8422   -9.6362    0.0000 N   0  0  0  0  0  0  0  0  0  0  0  0
   -0.3568   -9.8450    0.0000 N   0  0  0  0  0  0  0  0  0  0  0  0
    0.6852   -8.7660    0.0000 C   0  0  0  0  0  0  0  0  0  0  0  0
    2.1406   -9.1289    0.0000 C   0  0  0  0  0  0  0  0  0  0  0  0
    3.1826   -8.0498    0.0000 C   0  0  0  0  0  0  0  0  0  0  0  0
    2.7692   -6.6080    0.0000 N   0  0  0  0  0  0  0  0  0  0  0  0
    1.3137   -6.2451    0.0000 N   0  0  0  0  0  0  0  0  0  0  0  0
    0.2717   -7.3241    0.0000 C   0  0  0  0  0  0  0  0  0  0  0  0
   -1.1837   -6.9612    0.0000 C   0  0  0  0  0  0  0  0  0  0  0  0
   -1.5972   -5.5193    0.0000 C   0  0  0  0  0  0  0  0  0  0  0  0
   -3.0526   -5.1564    0.0000 C   0  0  0  0  0  0  0  0  0  0  0  0
   -4.0946   -6.2354    0.0000 C   0  0  0  0  0  0  0  0  0  0  0  0
   -5.5500   -5.8725    0.0000 C   0  0  0  0  0  0  0  0  0  0  0  0
   -6.6991   -6.8367    0.0000 N   0  0  0  0  0  0  0  0  0  0  0  0
   -7.9712   -6.0419    0.0000 N   0  0  0  0  0  0  0  0  0  0  0  0
   -7.6083   -4.5864    0.0000 N   0  0  0  0  0  0  0  0  0  0  0  0
   -6.1120   -4.4818    0.0000 N   0  0  0  0  0  0  0  0  0  0  0  0
   -5.3171   -3.2097    0.0000 C   0  0  0  0  0  0  0  0  0  0  0  0
   -6.2406   -2.0277    0.0000 C   0  0  0  0  0  0  0  0  0  0  0  0
   -6.1882   -0.5286    0.0000 C   0  0  0  0  0  0  0  0  0  0  0  0
   -5.1845    0.5861    0.0000 C   0  0  0  0  0  0  0  0  0  0  0  0
   -6.5089    1.2903    0.0000 C   0  0  0  0  0  0  0  0  0  0  0  0
   -7.1665    2.6385    0.0000 C   0  0  0  0  0  0  0  0  0  0  0  0
   -8.6519    2.4298    0.0000 C   0  0  0  0  0  0  0  0  0  0  0  0
   -9.2138    1.0390    0.0000 C   0  0  0  0  0  0  0  0  0  0  0  0
  -10.6992    0.8302    0.0000 C   0  0  0  0  0  0  0  0  0  0  0  0
  -11.6227    2.0122    0.0000 C   0  0  0  0  0  0  0  0  0  0  0  0
  -11.0608    3.4030    0.0000 C   0  0  0  0  0  0  0  0  0  0  0  0
   -9.5754    3.6118    0.0000 C   0  0  0  0  0  0  0  0  0  0  0  0
   -9.0135    5.0025    0.0000 C   0  0  0  0  0  0  0  0  0  0  0  0
   -9.9370    6.1846    0.0000 C   0  0  0  0  0  0  0  0  0  0  0  0
   -9.3751    7.5753    0.0000 C   0  0  0  0  0  0  0  0  0  0  0  0
   -7.8897    7.7841    0.0000 C   0  0  0  0  0  0  0  0  0  0  0  0
   -6.9662    6.6021    0.0000 C   0  0  0  0  0  0  0  0  0  0  0  0
   -7.5281    5.2113    0.0000 C   0  0  0  0  0  0  0  0  0  0  0  0
   -6.9060    4.1157    0.0000 C   0  0  0  0  0  0  0  0  0  0  0  0
   -5.8270    5.1577    0.0000 C   0  0  0  0  0  0  0  0  0  0  0  0
   -4.3416    5.3665    0.0000 C   0  0  0  0  0  0  0  0  0  0  0  0
   -3.0172    4.6623    0.0000 C   0  0  0  0  0  0  0  0  0  0  0  0
   -2.3596    3.3141    0.0000 C   0  0  0  0  0  0  0  0  0  0  0  0
   -2.6201    1.8369    0.0000 C   0  0  0  0  0  0  0  0  0  0  0  0
   -3.6991    0.7949    0.0000 C   0  0  0  0  0  0  0  0  0  0  0  0
   -2.4271    0.0000    0.0000 N   0  0  0  0  0  0  0  0  0  0  0  0
   -1.9635   -1.4266    0.0000 N   0  0  0  0  0  0  0  0  0  0  0  0
   -2.5254   -2.8174    0.0000 N   0  0  0  0  0  0  0  0  0  0  0  0
   -3.8499   -3.5216    0.0000 N   0  0  0  0  0  0  0  0  0  0  0  0
   -3.6811   -7.6773    0.0000 C   0  0  0  0  0  0  0  0  0  0  0  0
   -4.7231   -8.7563    0.0000 O   0  0  0  0  0  0  0  0  0  0  0  0
   -2.2257   -8.0402    0.0000 N   0  0  0  0  0  0  0  0  0  0  0  0
    1.3565  -13.4761    0.0000 C   0  0  0  0  0  0  0  0  0  0  0  0
    0.1129  -14.3149    0.0000 O   0  0  0  0  0  0  0  0  0  0  0  0
    2.7047  -14.1337    0.0000 N   0  0  0  0  0  0  0  0  0  0  0  0
  1  2  1  0
  2  3  2  0
  3  4  1  0
  4  5  2  0
  5  6  1  0
  6  7  2  0
  7  8  1  0
  8  9  2  0
  9 10  1  0
 10 11  1  0
 11 12  2  0
 12 13  1  0
 13 14  2  0
 14 15  1  0
 15 16  2  0
 16 17  1  0
 17 18  2  0
 18 19  1  0
 19 20  2  0
 20 21  1  0
 21 22  2  0
 22 23  1  0
 23 24  2  0
 24 25  1  0
 25 26  1  0
 26 27  2  0
 27 28  1  0
 28 29  2  0
 29 30  1  0
 30 31  2  0
 31 32  1  0
 32 33  2  0
 33 34  1  0
 34 35  2  0
 35 36  1  0
 36 37  2  0
 37 38  1  0
 38 39  2  0
 39 40  1  0
 40 41  2  0
 41 42  1  0
 42 43  2  0
 31 44  1  0
 44 45  2  0
 45 46  1  0
 46 47  2  0
 47 48  1  0
 48 49  2  0
 49 50  1  0
 50 51  2  0
 51 52  1  0
 52 53  2  0
 53 54  1  0
 20 55  1  0
 55 56  2  0
 55 57  1  0
  5 58  1  0
 58 59  2  0
 58 60  1  0
 60  2  1  0
 10  6  1  0
 16 11  1  0
 57 17  1  0
 25 21  1  0
 54 26  1  0
 50 29  1  0
 37 32  1  0
 43 38  1  0
 54 44  1  0
M  END
>  <Title>  (585) 
idAAWMgen8

$$$$

     RDKit          2D

 26 26  0  0  0  0  0  0  0  0999 V2000
    7.9960   -1.2990    0.0000 C   0  0  0  0  0  0  0  0  0  0  0  0
    7.2460    0.0000    0.0000 C   0  0  0  0  0  0  0  0  0  0  0  0
    5.7460    0.0000    0.0000 C   0  0  0  0  0  0  0  0  0  0  0  0
    5.5502   -1.4872    0.0000 C   0  0  0  0  0  0  0  0  0  0  0  0
    4.9762   -2.8730    0.0000 C   0  0  0  0  0  0  0  0  0  0  0  0
    4.0630   -4.0630    0.0000 C   0  0  0  0  0  0  0  0  0  0  0  0
    2.8730   -4.9762    0.0000 C   0  0  0  0  0  0  0  0  0  0  0  0
    1.4872   -5.5502    0.0000 C   0  0  0  0  0  0  0  0  0  0  0  0
   -0.0000   -5.7460    0.0000 C   0  0  0  0  0  0  0  0  0  0  0  0
   -1.4872   -5.5502    0.0000 C   0  0  0  0  0  0  0  0  0  0  0  0
   -2.8730   -4.9762    0.0000 C   0  0  0  0  0  0  0  0  0  0  0  0
   -4.0630   -4.0630    0.0000 C   0  0  0  0  0  0  0  0  0  0  0  0
   -4.9762   -2.8730    0.0000 C   0  0  0  0  0  0  0  0  0  0  0  0
   -5.5502   -1.4872    0.0000 C   0  0  0  0  0  0  0  0  0  0  0  0
   -5.7460    0.0000    0.0000 C   0  0  0  0  0  0  0  0  0  0  0  0
   -5.5502    1.4872    0.0000 C   0  0  0  0  0  0  0  0  0  0  0  0
   -4.9762    2.8730    0.0000 C   0  0  0  0  0  0  0  0  0  0  0  0
   -4.0630    4.0630    0.0000 C   0  0  0  0  0  0  0  0  0  0  0  0
   -2.8730    4.9762    0.0000 C   0  0  0  0  0  0  0  0  0  0  0  0
   -1.4872    5.5502    0.0000 C   0  0  0  0  0  0  0  0  0  0  0  0
    0.0000    5.7460    0.0000 C   0  0  0  0  0  0  0  0  0  0  0  0
    1.4872    5.5502    0.0000 C   0  0  0  0  0  0  0  0  0  0  0  0
    2.8730    4.9762    0.0000 C   0  0  0  0  0  0  0  0  0  0  0  0
    4.0630    4.0630    0.0000 C   0  0  0  0  0  0  0  0  0  0  0  0
    4.9762    2.8730    0.0000 C   0  0  0  0  0  0  0  0  0  0  0  0
    5.5502    1.4872    0.0000 C   0  0  0  0  0  0  0  0  0  0  0  0
  1  2  1  0
  2  3  1  0
  3  4  2  0
  4  5  1  0
  5  6  2  0
  6  7  1  0
  7  8  2  0
  8  9  1  0
  9 10  2  0
 10 11  1  0
 11 12  2  0
 12 13  1  0
 13 14  2  0
 14 15  1  0
 15 16  2  0
 16 17  1  0
 17 18  2  0
 18 19  1  0
 19 20  2  0
 20 21  1  0
 21 22  2  0
 22 23  1  0
 23 24  2  0
 24 25  1  0
 25 26  1  0
 26  3  1  0
M  END
>  <Title>  (586) 
idAAWNgen8

$$$$

     RDKit          2D

 43 44  0  0  0  0  0  0  0  0999 V2000
   -6.8454    4.0050    0.0000 O   0  0  0  0  0  0  0  0  0  0  0  0
   -5.6248    4.8767    0.0000 C   0  0  0  0  0  0  0  0  0  0  0  0
   -6.3836    6.1707    0.0000 C   0  0  0  0  0  0  0  0  0  0  0  0
   -6.8992    7.5793    0.0000 C   0  0  0  0  0  0  0  0  0  0  0  0
   -7.1549    9.0573    0.0000 C   0  0  0  0  0  0  0  0  0  0  0  0
   -7.1427   10.5572    0.0000 C   0  0  0  0  0  0  0  0  0  0  0  0
   -6.8628   12.0309    0.0000 C   0  0  0  0  0  0  0  0  0  0  0  0
   -6.3243   13.4309    0.0000 C   0  0  0  0  0  0  0  0  0  0  0  0
   -5.5445   14.7123    0.0000 C   0  0  0  0  0  0  0  0  0  0  0  0
   -4.5484   15.8338    0.0000 C   0  0  0  0  0  0  0  0  0  0  0  0
   -3.3681   16.7594    0.0000 C   0  0  0  0  0  0  0  0  0  0  0  0
   -2.0414   17.4594    0.0000 C   0  0  0  0  0  0  0  0  0  0  0  0
   -0.6111   17.9113    0.0000 C   0  0  0  0  0  0  0  0  0  0  0  0
    0.8769   18.1005    0.0000 C   0  0  0  0  0  0  0  0  0  0  0  0
    2.3748   18.0210    0.0000 C   0  0  0  0  0  0  0  0  0  0  0  0
    3.8344   17.6753    0.0000 C   0  0  0  0  0  0  0  0  0  0  0  0
    5.2089   17.0745    0.0000 C   0  0  0  0  0  0  0  0  0  0  0  0
    6.4539   16.2380    0.0000 C   0  0  0  0  0  0  0  0  0  0  0  0
    7.5296   15.1926    0.0000 C   0  0  0  0  0  0  0  0  0  0  0  0
    8.4014   13.9719    0.0000 C   0  0  0  0  0  0  0  0  0  0  0  0
    9.0412   12.6152    0.0000 C   0  0  0  0  0  0  0  0  0  0  0  0
    9.4284   11.1660    0.0000 C   0  0  0  0  0  0  0  0  0  0  0  0
    9.5507    9.6710    0.0000 C   0  0  0  0  0  0  0  0  0  0  0  0
    9.4040    8.1782    0.0000 C   0  0  0  0  0  0  0  0  0  0  0  0
    8.9932    6.7355    0.0000 C   0  0  0  0  0  0  0  0  0  0  0  0
    8.3313    5.3894    0.0000 C   0  0  0  0  0  0  0  0  0  0  0  0
    7.4398    4.1832    0.0000 C   0  0  0  0  0  0  0  0  0  0  0  0
    6.3472    3.1554    0.0000 C   0  0  0  0  0  0  0  0  0  0  0  0
    5.0886    2.3393    0.0000 C   0  0  0  0  0  0  0  0  0  0  0  0
    3.7046    1.7611    0.0000 C   0  0  0  0  0  0  0  0  0  0  0  0
    2.2395    1.4392    0.0000 C   0  0  0  0  0  0  0  0  0  0  0  0
    2.6621    0.0000    0.0000 C   0  0  0  0  0  0  0  0  0  0  0  0
    2.2395   -1.4392    0.0000 C   0  0  0  0  0  0  0  0  0  0  0  0
    1.1059   -2.4215    0.0000 C   0  0  0  0  0  0  0  0  0  0  0  0
   -0.3789   -2.6350    0.0000 C   0  0  0  0  0  0  0  0  0  0  0  0
   -1.7433   -2.0119    0.0000 C   0  0  0  0  0  0  0  0  0  0  0  0
   -2.5543   -0.7500    0.0000 C   0  0  0  0  0  0  0  0  0  0  0  0
   -2.5543    0.7500    0.0000 C   0  0  0  0  0  0  0  0  0  0  0  0
   -1.7433    2.0119    0.0000 C   0  0  0  0  0  0  0  0  0  0  0  0
   -0.3789    2.6350    0.0000 C   0  0  0  0  0  0  0  0  0  0  0  0
    1.1059    2.4215    0.0000 C   0  0  0  0  0  0  0  0  0  0  0  0
   -3.4820    2.7944    0.0000 C   0  0  0  0  0  0  0  0  0  0  0  0
   -4.6471    3.7391    0.0000 N   0  0  0  0  0  0  0  0  0  0  0  0
  1  2  1  0
  2  3  2  0
  3  4  1  0
  4  5  2  0
  5  6  1  0
  6  7  2  0
  7  8  1  0
  8  9  2  0
  9 10  1  0
 10 11  2  0
 11 12  1  0
 12 13  2  0
 13 14  1  0
 14 15  2  0
 15 16  1  0
 16 17  2  0
 17 18  1  0
 18 19  2  0
 19 20  1  0
 20 21  2  0
 21 22  1  0
 22 23  2  0
 23 24  1  0
 24 25  2  0
 25 26  1  0
 26 27  2  0
 27 28  1  0
 28 29  2  0
 29 30  1  0
 30 31  2  0
 31 32  1  0
 32 33  2  0
 33 34  1  0
 34 35  2  0
 35 36  1  0
 36 37  2  0
 37 38  1  0
 38 39  1  0
 39 40  1  0
 40 41  1  0
 39 42  1  0
 42 43  1  0
 43  2  1  0
 41 31  1  0
M  END
>  <Title>  (587) 
idAAWOgen8

$$$$

     RDKit          2D

 10 10  0  0  0  0  0  0  0  0999 V2000
    3.6929    0.0000    0.0000 O   0  0  0  0  0  0  0  0  0  0  0  0
    2.1929    0.0000    0.0000 C   0  0  0  0  0  0  0  0  0  0  0  0
    1.6798    1.4095    0.0000 C   0  0  0  0  0  0  0  0  0  0  0  0
    0.3808    2.1595    0.0000 C   0  0  0  0  0  0  0  0  0  0  0  0
   -1.0964    1.8991    0.0000 C   0  0  0  0  0  0  0  0  0  0  0  0
   -2.0606    0.7500    0.0000 C   0  0  0  0  0  0  0  0  0  0  0  0
   -2.0606   -0.7500    0.0000 C   0  0  0  0  0  0  0  0  0  0  0  0
   -1.0964   -1.8991    0.0000 C   0  0  0  0  0  0  0  0  0  0  0  0
    0.3808   -2.1595    0.0000 C   0  0  0  0  0  0  0  0  0  0  0  0
    1.6798   -1.4095    0.0000 C   0  0  0  0  0  0  0  0  0  0  0  0
  1  2  1  0
  2  3  2  0
  3  4  1  0
  4  5  2  0
  5  6  1  0
  6  7  2  0
  7  8  1  0
  8  9  2  0
  9 10  1  0
 10  2  1  0
M  END
>  <Title>  (588) 
idAAWPgen8

$$$$

     RDKit          2D

 29 31  0  0  0  0  0  0  0  0999 V2000
    6.7843   -6.0772    0.0000 C   0  0  0  0  0  0  0  0  0  0  0  0
    7.7195   -4.9045    0.0000 C   0  0  0  0  0  0  0  0  0  0  0  0
    7.1715   -3.5082    0.0000 N   0  0  0  0  0  0  0  0  0  0  0  0
    8.1068   -2.3354    0.0000 C   0  0  0  0  0  0  0  0  0  0  0  0
    7.5587   -0.9391    0.0000 N   0  0  0  0  0  0  0  0  0  0  0  0
    6.0755   -0.7155    0.0000 C   0  0  0  0  0  0  0  0  0  0  0  0
    5.1403   -1.8883    0.0000 O   0  0  0  0  0  0  0  0  0  0  0  0
    5.5275    0.6808    0.0000 N   0  0  0  0  0  0  0  0  0  0  0  0
    4.0442    0.9043    0.0000 C   0  0  0  0  0  0  0  0  0  0  0  0
    3.1090   -0.2684    0.0000 O   0  0  0  0  0  0  0  0  0  0  0  0
    3.4962    2.3006    0.0000 C   0  0  0  0  0  0  0  0  0  0  0  0
    4.4315    3.4734    0.0000 C   0  0  0  0  0  0  0  0  0  0  0  0
    3.8835    4.8697    0.0000 C   0  0  0  0  0  0  0  0  0  0  0  0
    2.4002    5.0933    0.0000 C   0  0  0  0  0  0  0  0  0  0  0  0
    1.4650    3.9205    0.0000 C   0  0  0  0  0  0  0  0  0  0  0  0
    2.0130    2.5242    0.0000 C   0  0  0  0  0  0  0  0  0  0  0  0
    1.0777    1.3515    0.0000 C   0  0  0  0  0  0  0  0  0  0  0  0
    1.7286    0.0000    0.0000 C   0  0  0  0  0  0  0  0  0  0  0  0
    1.0777   -1.3515    0.0000 C   0  0  0  0  0  0  0  0  0  0  0  0
   -0.3846   -1.6852    0.0000 C   0  0  0  0  0  0  0  0  0  0  0  0
   -1.5574   -0.7500    0.0000 C   0  0  0  0  0  0  0  0  0  0  0  0
   -1.5574    0.7500    0.0000 C   0  0  0  0  0  0  0  0  0  0  0  0
   -0.3846    1.6852    0.0000 C   0  0  0  0  0  0  0  0  0  0  0  0
    9.5900   -2.5590    0.0000 N   0  0  0  0  0  0  0  0  0  0  0  0
   10.1380   -3.9553    0.0000 C   0  0  0  0  0  0  0  0  0  0  0  0
   11.6213   -4.1789    0.0000 C   0  0  0  0  0  0  0  0  0  0  0  0
   12.5565   -3.0061    0.0000 C   0  0  0  0  0  0  0  0  0  0  0  0
   12.0085   -1.6098    0.0000 C   0  0  0  0  0  0  0  0  0  0  0  0
   10.5252   -1.3862    0.0000 C   0  0  0  0  0  0  0  0  0  0  0  0
  1  2  1  0
  2  3  1  0
  3  4  2  3
  4  5  1  0
  5  6  1  0
  6  7  2  0
  6  8  1  0
  8  9  1  0
  9 10  2  0
  9 11  1  0
 11 12  1  0
 12 13  1  0
 13 14  1  0
 14 15  1  0
 15 16  1  0
 16 17  1  0
 17 18  1  0
 18 19  1  0
 19 20  1  0
 20 21  1  0
 21 22  1  0
 22 23  1  0
  4 24  1  0
 24 25  1  0
 25 26  1  0
 26 27  1  0
 27 28  1  0
 28 29  1  0
 16 11  1  0
 23 17  1  0
 29 24  1  0
M  END
>  <Title>  (589) 
idAAWQgen8

$$$$

     RDKit          2D

 33 34  0  0  0  0  0  0  0  0999 V2000
   -6.8013    6.6268    0.0000 C   0  0  0  0  0  0  0  0  0  0  0  0
   -5.7437    5.5631    0.0000 O   0  0  0  0  0  0  0  0  0  0  0  0
   -4.2937    5.9472    0.0000 C   0  0  0  0  0  0  0  0  0  0  0  0
   -4.5002    7.4329    0.0000 C   0  0  0  0  0  0  0  0  0  0  0  0
   -4.3451    8.9248    0.0000 C   0  0  0  0  0  0  0  0  0  0  0  0
   -3.8375   10.3363    0.0000 C   0  0  0  0  0  0  0  0  0  0  0  0
   -3.0069   11.5853    0.0000 C   0  0  0  0  0  0  0  0  0  0  0  0
   -1.9014   12.5993    0.0000 C   0  0  0  0  0  0  0  0  0  0  0  0
   -0.5855   13.3192    0.0000 C   0  0  0  0  0  0  0  0  0  0  0  0
    0.8645   13.7032    0.0000 C   0  0  0  0  0  0  0  0  0  0  0  0
    2.3643   13.7291    0.0000 C   0  0  0  0  0  0  0  0  0  0  0  0
    3.8267   13.3953    0.0000 C   0  0  0  0  0  0  0  0  0  0  0  0
    5.1667   12.7213    0.0000 C   0  0  0  0  0  0  0  0  0  0  0  0
    6.3065   11.7461    0.0000 C   0  0  0  0  0  0  0  0  0  0  0  0
    7.1797   10.5265    0.0000 C   0  0  0  0  0  0  0  0  0  0  0  0
    7.7358    9.1334    0.0000 C   0  0  0  0  0  0  0  0  0  0  0  0
    7.9423    7.6477    0.0000 C   0  0  0  0  0  0  0  0  0  0  0  0
    7.7872    6.1557    0.0000 C   0  0  0  0  0  0  0  0  0  0  0  0
    7.2796    4.7442    0.0000 C   0  0  0  0  0  0  0  0  0  0  0  0
    6.4489    3.4952    0.0000 C   0  0  0  0  0  0  0  0  0  0  0  0
    5.3435    2.4813    0.0000 C   0  0  0  0  0  0  0  0  0  0  0  0
    4.0275    1.7614    0.0000 C   0  0  0  0  0  0  0  0  0  0  0  0
    2.5775    1.3773    0.0000 C   0  0  0  0  0  0  0  0  0  0  0  0
    1.0777    1.3515    0.0000 C   0  0  0  0  0  0  0  0  0  0  0  0
    1.7286    0.0000    0.0000 C   0  0  0  0  0  0  0  0  0  0  0  0
    1.0777   -1.3515    0.0000 C   0  0  0  0  0  0  0  0  0  0  0  0
   -0.3846   -1.6852    0.0000 C   0  0  0  0  0  0  0  0  0  0  0  0
   -1.5574   -0.7500    0.0000 C   0  0  0  0  0  0  0  0  0  0  0  0
   -1.5574    0.7500    0.0000 C   0  0  0  0  0  0  0  0  0  0  0  0
   -0.3846    1.6852    0.0000 C   0  0  0  0  0  0  0  0  0  0  0  0
   -1.7247    2.3593    0.0000 C   0  0  0  0  0  0  0  0  0  0  0  0
   -2.8644    3.3344    0.0000 C   0  0  0  0  0  0  0  0  0  0  0  0
   -3.7377    4.5540    0.0000 C   0  0  0  0  0  0  0  0  0  0  0  0
  1  2  1  0
  2  3  1  0
  3  4  2  0
  4  5  1  0
  5  6  2  0
  6  7  1  0
  7  8  2  0
  8  9  1  0
  9 10  2  0
 10 11  1  0
 11 12  2  0
 12 13  1  0
 13 14  2  0
 14 15  1  0
 15 16  2  0
 16 17  1  0
 17 18  2  0
 18 19  1  0
 19 20  2  0
 20 21  1  0
 21 22  2  0
 22 23  1  0
 23 24  2  0
 24 25  1  0
 25 26  2  0
 26 27  1  0
 27 28  2  0
 28 29  1  0
 29 30  2  0
 30 31  1  0
 31 32  1  0
 32 33  2  0
 33  3  1  0
 30 24  1  0
M  END
>  <Title>  (590) 
idAAWRgen8

$$$$

     RDKit          2D

 26 27  0  0  0  0  0  0  0  0999 V2000
   -7.6947    1.1717    0.0000 C   0  0  0  0  0  0  0  0  0  0  0  0
   -6.2275    0.8598    0.0000 O   0  0  0  0  0  0  0  0  0  0  0  0
   -5.2238    1.9745    0.0000 C   0  0  0  0  0  0  0  0  0  0  0  0
   -6.1765    3.1332    0.0000 C   0  0  0  0  0  0  0  0  0  0  0  0
   -6.7453    4.5211    0.0000 C   0  0  0  0  0  0  0  0  0  0  0  0
   -6.8798    6.0151    0.0000 C   0  0  0  0  0  0  0  0  0  0  0  0
   -6.5679    7.4823    0.0000 C   0  0  0  0  0  0  0  0  0  0  0  0
   -5.8374    8.7924    0.0000 C   0  0  0  0  0  0  0  0  0  0  0  0
   -4.7532    9.8290    0.0000 C   0  0  0  0  0  0  0  0  0  0  0  0
   -3.4117   10.5000    0.0000 C   0  0  0  0  0  0  0  0  0  0  0  0
   -1.9319   10.7457    0.0000 C   0  0  0  0  0  0  0  0  0  0  0  0
   -0.4455   10.5444    0.0000 C   0  0  0  0  0  0  0  0  0  0  0  0
    0.9155    9.9138    0.0000 C   0  0  0  0  0  0  0  0  0  0  0  0
    2.0303    8.9101    0.0000 C   0  0  0  0  0  0  0  0  0  0  0  0
    2.7996    7.6225    0.0000 C   0  0  0  0  0  0  0  0  0  0  0  0
    3.1552    6.1652    0.0000 C   0  0  0  0  0  0  0  0  0  0  0  0
    3.0655    4.6679    0.0000 C   0  0  0  0  0  0  0  0  0  0  0  0
    2.5385    3.2636    0.0000 C   0  0  0  0  0  0  0  0  0  0  0  0
    1.6209    2.0770    0.0000 C   0  0  0  0  0  0  0  0  0  0  0  0
    0.3943    1.2135    0.0000 C   0  0  0  0  0  0  0  0  0  0  0  0
    1.2760    0.0000    0.0000 C   0  0  0  0  0  0  0  0  0  0  0  0
    0.3943   -1.2135    0.0000 C   0  0  0  0  0  0  0  0  0  0  0  0
   -1.0323   -0.7500    0.0000 C   0  0  0  0  0  0  0  0  0  0  0  0
   -1.0323    0.7500    0.0000 C   0  0  0  0  0  0  0  0  0  0  0  0
   -2.5321    0.7276    0.0000 C   0  0  0  0  0  0  0  0  0  0  0  0
   -3.9719    1.1482    0.0000 C   0  0  0  0  0  0  0  0  0  0  0  0
  1  2  1  0
  2  3  1  0
  3  4  2  0
  4  5  1  0
  5  6  2  0
  6  7  1  0
  7  8  2  0
  8  9  1  0
  9 10  2  0
 10 11  1  0
 11 12  2  0
 12 13  1  0
 13 14  2  0
 14 15  1  0
 15 16  2  0
 16 17  1  0
 17 18  2  0
 18 19  1  0
 19 20  2  0
 20 21  1  0
 21 22  2  0
 22 23  1  0
 23 24  2  0
 24 25  1  0
 25 26  2  0
 26  3  1  0
 24 20  1  0
M  END
>  <Title>  (591) 
idAAWSgen8

$$$$

     RDKit          2D

 17 17  0  0  0  0  0  0  0  0999 V2000
    5.3444    0.0000    0.0000 O   0  0  0  0  0  0  0  0  0  0  0  0
    3.8444    0.0000    0.0000 C   0  0  0  0  0  0  0  0  0  0  0  0
    3.5517   -1.4712    0.0000 C   0  0  0  0  0  0  0  0  0  0  0  0
    2.7184   -2.7184    0.0000 C   0  0  0  0  0  0  0  0  0  0  0  0
    1.4712   -3.5517    0.0000 C   0  0  0  0  0  0  0  0  0  0  0  0
   -0.0000   -3.8444    0.0000 C   0  0  0  0  0  0  0  0  0  0  0  0
   -1.4712   -3.5517    0.0000 C   0  0  0  0  0  0  0  0  0  0  0  0
   -2.7184   -2.7184    0.0000 C   0  0  0  0  0  0  0  0  0  0  0  0
   -3.5517   -1.4712    0.0000 C   0  0  0  0  0  0  0  0  0  0  0  0
   -3.8444    0.0000    0.0000 C   0  0  0  0  0  0  0  0  0  0  0  0
   -3.5517    1.4712    0.0000 C   0  0  0  0  0  0  0  0  0  0  0  0
   -2.7184    2.7184    0.0000 C   0  0  0  0  0  0  0  0  0  0  0  0
   -1.4712    3.5517    0.0000 C   0  0  0  0  0  0  0  0  0  0  0  0
    0.0000    3.8444    0.0000 C   0  0  0  0  0  0  0  0  0  0  0  0
    1.4712    3.5517    0.0000 C   0  0  0  0  0  0  0  0  0  0  0  0
    2.7184    2.7184    0.0000 C   0  0  0  0  0  0  0  0  0  0  0  0
    3.5517    1.4712    0.0000 C   0  0  0  0  0  0  0  0  0  0  0  0
  1  2  1  0
  2  3  2  0
  3  4  1  0
  4  5  2  0
  5  6  2  0
  6  7  2  0
  7  8  1  0
  8  9  2  0
  9 10  1  0
 10 11  2  0
 11 12  1  0
 12 13  2  0
 13 14  1  0
 14 15  2  0
 15 16  1  0
 16 17  2  0
 17  2  1  0
M  END
>  <Title>  (592) 
idAAWTgen8

$$$$

     RDKit          2D

 30 30  0  0  0  0  0  0  0  0999 V2000
    8.4368    0.0000    0.0000 C   0  0  0  0  0  0  0  0  0  0  0  0
    6.9368    0.0000    0.0000 C   0  0  0  0  0  0  0  0  0  0  0  0
    6.7746    1.4912    0.0000 C   0  0  0  0  0  0  0  0  0  0  0  0
    6.2957    2.9127    0.0000 C   0  0  0  0  0  0  0  0  0  0  0  0
    5.5223    4.1980    0.0000 C   0  0  0  0  0  0  0  0  0  0  0  0
    4.4908    5.2870    0.0000 C   0  0  0  0  0  0  0  0  0  0  0  0
    3.2493    6.1287    0.0000 C   0  0  0  0  0  0  0  0  0  0  0  0
    1.8558    6.6840    0.0000 C   0  0  0  0  0  0  0  0  0  0  0  0
    0.3756    6.9266    0.0000 C   0  0  0  0  0  0  0  0  0  0  0  0
   -1.1222    6.8454    0.0000 C   0  0  0  0  0  0  0  0  0  0  0  0
   -2.5676    6.4441    0.0000 C   0  0  0  0  0  0  0  0  0  0  0  0
   -3.8928    5.7415    0.0000 C   0  0  0  0  0  0  0  0  0  0  0  0
   -5.0361    4.7704    0.0000 C   0  0  0  0  0  0  0  0  0  0  0  0
   -5.9438    3.5763    0.0000 C   0  0  0  0  0  0  0  0  0  0  0  0
   -6.5737    2.2149    0.0000 C   0  0  0  0  0  0  0  0  0  0  0  0
   -6.8961    0.7500    0.0000 C   0  0  0  0  0  0  0  0  0  0  0  0
   -6.8961   -0.7500    0.0000 C   0  0  0  0  0  0  0  0  0  0  0  0
   -6.5737   -2.2149    0.0000 C   0  0  0  0  0  0  0  0  0  0  0  0
   -5.9438   -3.5763    0.0000 C   0  0  0  0  0  0  0  0  0  0  0  0
   -5.0361   -4.7704    0.0000 C   0  0  0  0  0  0  0  0  0  0  0  0
   -3.8928   -5.7415    0.0000 C   0  0  0  0  0  0  0  0  0  0  0  0
   -2.5676   -6.4441    0.0000 C   0  0  0  0  0  0  0  0  0  0  0  0
   -1.1222   -6.8454    0.0000 C   0  0  0  0  0  0  0  0  0  0  0  0
    0.3756   -6.9266    0.0000 C   0  0  0  0  0  0  0  0  0  0  0  0
    1.8558   -6.6840    0.0000 C   0  0  0  0  0  0  0  0  0  0  0  0
    3.2493   -6.1287    0.0000 C   0  0  0  0  0  0  0  0  0  0  0  0
    4.4908   -5.2870    0.0000 C   0  0  0  0  0  0  0  0  0  0  0  0
    5.5223   -4.1980    0.0000 C   0  0  0  0  0  0  0  0  0  0  0  0
    6.2957   -2.9127    0.0000 C   0  0  0  0  0  0  0  0  0  0  0  0
    6.7746   -1.4912    0.0000 C   0  0  0  0  0  0  0  0  0  0  0  0
  1  2  1  0
  2  3  2  0
  3  4  1  0
  4  5  2  0
  5  6  2  0
  6  7  2  0
  7  8  2  0
  8  9  1  0
  9 10  2  0
 10 11  1  0
 11 12  2  0
 12 13  1  0
 13 14  2  0
 14 15  1  0
 15 16  2  0
 16 17  1  0
 17 18  2  0
 18 19  1  0
 19 20  2  0
 20 21  1  0
 21 22  2  0
 22 23  1  0
 23 24  2  0
 24 25  1  0
 25 26  2  0
 26 27  1  0
 27 28  2  0
 28 29  1  0
 29 30  2  0
 30  2  1  0
M  END
>  <Title>  (593) 
idAAWUgen8

$$$$

     RDKit          2D

 38 43  0  0  0  0  0  0  0  0999 V2000
   -6.3379    9.1465    0.0000 C   0  0  0  0  0  0  0  0  0  0  0  0
   -6.2706    7.6480    0.0000 C   0  0  0  0  0  0  0  0  0  0  0  0
   -4.8913    7.0584    0.0000 C   0  0  0  0  0  0  0  0  0  0  0  0
   -4.4922    5.6125    0.0000 C   0  0  0  0  0  0  0  0  0  0  0  0
   -5.3739    4.3990    0.0000 C   0  0  0  0  0  0  0  0  0  0  0  0
   -4.6631    3.0781    0.0000 N   0  0  0  0  0  0  0  0  0  0  0  0
   -5.3139    1.7266    0.0000 N   0  0  0  0  0  0  0  0  0  0  0  0
   -4.2297    0.6900    0.0000 N   0  0  0  0  0  0  0  0  0  0  0  0
   -2.9088    1.4008    0.0000 N   0  0  0  0  0  0  0  0  0  0  0  0
   -3.1767    2.8767    0.0000 C   0  0  0  0  0  0  0  0  0  0  0  0
   -2.1401    3.9609    0.0000 C   0  0  0  0  0  0  0  0  0  0  0  0
   -2.4079    5.4368    0.0000 C   0  0  0  0  0  0  0  0  0  0  0  0
   -1.0870    6.1476    0.0000 C   0  0  0  0  0  0  0  0  0  0  0  0
   -0.8857    7.6340    0.0000 C   0  0  0  0  0  0  0  0  0  0  0  0
   -1.9699    8.6706    0.0000 C   0  0  0  0  0  0  0  0  0  0  0  0
   -1.3190   10.0221    0.0000 N   0  0  0  0  0  0  0  0  0  0  0  0
    0.1674    9.8207    0.0000 N   0  0  0  0  0  0  0  0  0  0  0  0
    0.4352    8.3448    0.0000 N   0  0  0  0  0  0  0  0  0  0  0  0
    1.7867    7.6940    0.0000 C   0  0  0  0  0  0  0  0  0  0  0  0
    1.8988    6.1982    0.0000 C   0  0  0  0  0  0  0  0  0  0  0  0
    3.2502    5.5474    0.0000 C   0  0  0  0  0  0  0  0  0  0  0  0
    4.4896    6.3924    0.0000 C   0  0  0  0  0  0  0  0  0  0  0  0
    4.3775    7.8882    0.0000 C   0  0  0  0  0  0  0  0  0  0  0  0
    3.0260    8.5390    0.0000 C   0  0  0  0  0  0  0  0  0  0  0  0
   -0.0028    5.1110    0.0000 C   0  0  0  0  0  0  0  0  0  0  0  0
   -0.6537    3.7596    0.0000 C   0  0  0  0  0  0  0  0  0  0  0  0
    0.0571    2.4387    0.0000 C   0  0  0  0  0  0  0  0  0  0  0  0
   -0.7314    1.1626    0.0000 C   0  0  0  0  0  0  0  0  0  0  0  0
   -0.0206   -0.1582    0.0000 C   0  0  0  0  0  0  0  0  0  0  0  0
    1.4787   -0.2031    0.0000 C   0  0  0  0  0  0  0  0  0  0  0  0
    2.1896   -1.5240    0.0000 C   0  0  0  0  0  0  0  0  0  0  0  0
    2.2673    1.0729    0.0000 C   0  0  0  0  0  0  0  0  0  0  0  0
    3.7666    1.0280    0.0000 O   0  0  0  0  0  0  0  0  0  0  0  0
    1.5565    2.3938    0.0000 N   0  0  0  0  0  0  0  0  0  0  0  0
   -6.8724    4.3317    0.0000 N   0  0  0  0  0  0  0  0  0  0  0  0
   -7.8593    5.4613    0.0000 C   0  0  0  0  0  0  0  0  0  0  0  0
   -9.3052    5.0622    0.0000 O   0  0  0  0  0  0  0  0  0  0  0  0
   -7.5915    6.9372    0.0000 C   0  0  0  0  0  0  0  0  0  0  0  0
  1  2  1  0
  2  3  2  0
  3  4  1  0
  4  5  2  0
  5  6  1  0
  6  7  1  0
  7  8  2  0
  8  9  1  0
  9 10  2  0
 10 11  1  0
 11 12  2  0
 12 13  1  0
 13 14  1  0
 14 15  2  0
 15 16  1  0
 16 17  2  0
 17 18  1  0
 18 19  1  0
 19 20  2  0
 20 21  1  0
 21 22  2  0
 22 23  1  0
 23 24  2  0
 13 25  1  0
 25 26  2  0
 26 27  1  0
 27 28  2  0
 28 29  1  0
 29 30  2  0
 30 31  1  0
 30 32  1  0
 32 33  2  0
 32 34  1  0
  5 35  1  0
 35 36  1  0
 36 37  2  0
 36 38  1  0
 38  2  1  0
 10  6  1  0
 26 11  1  0
 34 27  1  0
 18 14  1  0
 24 19  1  0
M  END
>  <Title>  (594) 
idAAWVgen8

$$$$

     RDKit          2D

 39 44  0  0  0  0  0  0  0  0999 V2000
    3.4598   -0.0000    0.0000 C   0  0  0  0  0  0  0  0  0  0  0  0
    1.9598    0.0000    0.0000 C   0  0  0  0  0  0  0  0  0  0  0  0
    1.3858   -1.3858    0.0000 C   0  0  0  0  0  0  0  0  0  0  0  0
   -0.0000   -1.9598    0.0000 C   0  0  0  0  0  0  0  0  0  0  0  0
   -1.3858   -1.3858    0.0000 C   0  0  0  0  0  0  0  0  0  0  0  0
   -2.4465   -2.4465    0.0000 C   0  0  0  0  0  0  0  0  0  0  0  0
   -2.2118   -3.9280    0.0000 N   0  0  0  0  0  0  0  0  0  0  0  0
   -3.5483   -4.6090    0.0000 N   0  0  0  0  0  0  0  0  0  0  0  0
   -4.6090   -3.5483    0.0000 N   0  0  0  0  0  0  0  0  0  0  0  0
   -3.9280   -2.2118    0.0000 N   0  0  0  0  0  0  0  0  0  0  0  0
   -4.6090   -0.8753    0.0000 C   0  0  0  0  0  0  0  0  0  0  0  0
   -3.7920    0.3827    0.0000 C   0  0  0  0  0  0  0  0  0  0  0  0
   -4.4730    1.7192    0.0000 C   0  0  0  0  0  0  0  0  0  0  0  0
   -5.9710    1.7977    0.0000 C   0  0  0  0  0  0  0  0  0  0  0  0
   -6.6520    3.1342    0.0000 C   0  0  0  0  0  0  0  0  0  0  0  0
   -8.1335    3.3689    0.0000 N   0  0  0  0  0  0  0  0  0  0  0  0
   -8.3681    4.8504    0.0000 N   0  0  0  0  0  0  0  0  0  0  0  0
   -7.0316    5.5314    0.0000 N   0  0  0  0  0  0  0  0  0  0  0  0
   -5.9710    4.4707    0.0000 N   0  0  0  0  0  0  0  0  0  0  0  0
   -4.4894    4.7054    0.0000 C   0  0  0  0  0  0  0  0  0  0  0  0
   -3.5455    3.5397    0.0000 C   0  0  0  0  0  0  0  0  0  0  0  0
   -2.0639    3.7743    0.0000 C   0  0  0  0  0  0  0  0  0  0  0  0
   -1.5264    5.1747    0.0000 C   0  0  0  0  0  0  0  0  0  0  0  0
   -2.4704    6.3404    0.0000 C   0  0  0  0  0  0  0  0  0  0  0  0
   -3.9519    6.1057    0.0000 C   0  0  0  0  0  0  0  0  0  0  0  0
   -6.7879    0.5397    0.0000 C   0  0  0  0  0  0  0  0  0  0  0  0
   -6.1069   -0.7968    0.0000 C   0  0  0  0  0  0  0  0  0  0  0  0
   -6.9239   -2.0548    0.0000 C   0  0  0  0  0  0  0  0  0  0  0  0
   -8.4218   -1.9763    0.0000 C   0  0  0  0  0  0  0  0  0  0  0  0
   -9.2388   -3.2343    0.0000 C   0  0  0  0  0  0  0  0  0  0  0  0
   -8.5578   -4.5708    0.0000 C   0  0  0  0  0  0  0  0  0  0  0  0
   -9.3748   -5.8288    0.0000 C   0  0  0  0  0  0  0  0  0  0  0  0
   -7.0599   -4.6493    0.0000 C   0  0  0  0  0  0  0  0  0  0  0  0
   -6.3789   -5.9858    0.0000 O   0  0  0  0  0  0  0  0  0  0  0  0
   -6.2429   -3.3913    0.0000 N   0  0  0  0  0  0  0  0  0  0  0  0
   -1.9598    0.0000    0.0000 N   0  0  0  0  0  0  0  0  0  0  0  0
   -1.3858    1.3858    0.0000 N   0  0  0  0  0  0  0  0  0  0  0  0
    0.0000    1.9598    0.0000 N   0  0  0  0  0  0  0  0  0  0  0  0
    1.3858    1.3858    0.0000 C   0  0  0  0  0  0  0  0  0  0  0  0
  1  2  1  0
  2  3  2  0
  3  4  1  0
  4  5  2  0
  5  6  1  0
  6  7  2  0
  7  8  1  0
  8  9  2  0
  9 10  1  0
 10 11  1  0
 11 12  2  0
 12 13  1  0
 13 14  2  0
 14 15  1  0
 15 16  2  0
 16 17  1  0
 17 18  2  0
 18 19  1  0
 19 20  1  0
 20 21  2  0
 21 22  1  0
 22 23  2  0
 23 24  1  0
 24 25  2  0
 14 26  1  0
 26 27  2  0
 27 28  1  0
 28 29  2  0
 29 30  1  0
 30 31  2  0
 31 32  1  0
 31 33  1  0
 33 34  2  0
 33 35  1  0
  5 36  1  0
 36 37  2  0
 37 38  1  0
 38 39  2  0
 39  2  1  0
 10  6  1  0
 27 11  1  0
 35 28  1  0
 19 15  1  0
 25 20  1  0
M  END
>  <Title>  (595) 
idAAWWgen8

$$$$

     RDKit          2D

 50 57  0  0  0  0  0  0  0  0999 V2000
   -3.7500   -1.2990    0.0000 C   0  0  0  0  0  0  0  0  0  0  0  0
   -3.0000   -2.5981    0.0000 O   0  0  0  0  0  0  0  0  0  0  0  0
   -1.5000   -2.5981    0.0000 C   0  0  0  0  0  0  0  0  0  0  0  0
   -0.7500   -1.2990    0.0000 C   0  0  0  0  0  0  0  0  0  0  0  0
    0.7500   -1.2990    0.0000 C   0  0  0  0  0  0  0  0  0  0  0  0
    1.5000   -2.5981    0.0000 C   0  0  0  0  0  0  0  0  0  0  0  0
    3.0000   -2.5981    0.0000 N   0  0  0  0  0  0  0  0  0  0  0  0
    3.7500   -3.8971    0.0000 N   0  0  0  0  0  0  0  0  0  0  0  0
    5.2500   -3.8971    0.0000 N   0  0  0  0  0  0  0  0  0  0  0  0
    6.0000   -2.5981    0.0000 N   0  0  0  0  0  0  0  0  0  0  0  0
    5.2500   -1.2990    0.0000 N   0  0  0  0  0  0  0  0  0  0  0  0
    3.7500   -1.2990    0.0000 N   0  0  0  0  0  0  0  0  0  0  0  0
    3.0000    0.0000    0.0000 C   0  0  0  0  0  0  0  0  0  0  0  0
    1.5082    0.1568    0.0000 C   0  0  0  0  0  0  0  0  0  0  0  0
    1.1963    1.6240    0.0000 C   0  0  0  0  0  0  0  0  0  0  0  0
    2.4954    2.3740    0.0000 C   0  0  0  0  0  0  0  0  0  0  0  0
    2.6522    3.8658    0.0000 C   0  0  0  0  0  0  0  0  0  0  0  0
    1.4387    4.7475    0.0000 O   0  0  0  0  0  0  0  0  0  0  0  0
    4.0225    4.4759    0.0000 N   0  0  0  0  0  0  0  0  0  0  0  0
    4.1793    5.9677    0.0000 C   0  0  0  0  0  0  0  0  0  0  0  0
    3.0646    6.9714    0.0000 N   0  0  0  0  0  0  0  0  0  0  0  0
    3.6747    8.3417    0.0000 N   0  0  0  0  0  0  0  0  0  0  0  0
    5.1665    8.1849    0.0000 N   0  0  0  0  0  0  0  0  0  0  0  0
    5.4783    6.7177    0.0000 N   0  0  0  0  0  0  0  0  0  0  0  0
    6.8486    6.1076    0.0000 C   0  0  0  0  0  0  0  0  0  0  0  0
    7.0054    4.6158    0.0000 C   0  0  0  0  0  0  0  0  0  0  0  0
    8.3758    4.0057    0.0000 C   0  0  0  0  0  0  0  0  0  0  0  0
    9.5893    4.8874    0.0000 C   0  0  0  0  0  0  0  0  0  0  0  0
    9.4325    6.3792    0.0000 C   0  0  0  0  0  0  0  0  0  0  0  0
    8.0622    6.9893    0.0000 C   0  0  0  0  0  0  0  0  0  0  0  0
    3.6101    1.3703    0.0000 C   0  0  0  0  0  0  0  0  0  0  0  0
    5.0773    1.6822    0.0000 O   0  0  0  0  0  0  0  0  0  0  0  0
    0.7500   -3.8971    0.0000 C   0  0  0  0  0  0  0  0  0  0  0  0
    1.5000   -5.1962    0.0000 C   0  0  0  0  0  0  0  0  0  0  0  0
    0.7500   -6.4952    0.0000 C   0  0  0  0  0  0  0  0  0  0  0  0
   -0.7500   -6.4952    0.0000 C   0  0  0  0  0  0  0  0  0  0  0  0
   -1.5000   -7.7942    0.0000 C   0  0  0  0  0  0  0  0  0  0  0  0
   -0.7500   -9.0933    0.0000 C   0  0  0  0  0  0  0  0  0  0  0  0
   -1.5000  -10.3923    0.0000 C   0  0  0  0  0  0  0  0  0  0  0  0
   -3.0000  -10.3923    0.0000 C   0  0  0  0  0  0  0  0  0  0  0  0
   -3.7500   -9.0933    0.0000 C   0  0  0  0  0  0  0  0  0  0  0  0
   -3.0000   -7.7942    0.0000 C   0  0  0  0  0  0  0  0  0  0  0  0
   -3.7500   -6.4952    0.0000 C   0  0  0  0  0  0  0  0  0  0  0  0
   -5.2500   -6.4952    0.0000 C   0  0  0  0  0  0  0  0  0  0  0  0
   -6.0000   -5.1962    0.0000 C   0  0  0  0  0  0  0  0  0  0  0  0
   -5.2500   -3.8971    0.0000 C   0  0  0  0  0  0  0  0  0  0  0  0
   -3.7500   -3.8971    0.0000 C   0  0  0  0  0  0  0  0  0  0  0  0
   -3.0000   -5.1962    0.0000 C   0  0  0  0  0  0  0  0  0  0  0  0
   -1.5000   -5.1962    0.0000 C   0  0  0  0  0  0  0  0  0  0  0  0
   -0.7500   -3.8971    0.0000 C   0  0  0  0  0  0  0  0  0  0  0  0
  1  2  1  0
  2  3  1  0
  3  4  2  0
  4  5  1  0
  5  6  2  0
  6  7  1  0
  7  8  1  0
  8  9  2  0
  9 10  1  0
 10 11  2  0
 11 12  1  0
 12 13  1  0
 13 14  2  0
 14 15  1  0
 15 16  2  0
 16 17  1  0
 17 18  2  0
 17 19  1  0
 19 20  1  0
 20 21  2  0
 21 22  1  0
 22 23  2  0
 23 24  1  0
 24 25  1  0
 25 26  2  0
 26 27  1  0
 27 28  2  0
 28 29  1  0
 29 30  2  0
 16 31  1  0
 31 32  2  0
  6 33  1  0
 33 34  2  0
 34 35  1  0
 35 36  2  0
 36 37  1  0
 37 38  2  0
 38 39  1  0
 39 40  2  0
 40 41  1  0
 41 42  2  0
 42 43  1  0
 43 44  2  0
 44 45  1  0
 45 46  2  0
 46 47  1  0
 47 48  2  0
 36 49  1  0
 49 50  2  0
 50  3  1  0
 12  7  1  0
 31 13  1  0
 50 33  1  0
 24 20  1  0
 30 25  1  0
 42 37  1  0
 48 43  1  0
M  END
>  <Title>  (596) 
idAAWXgen8

$$$$

     RDKit          2D

 50 58  0  0  0  0  0  0  0  0999 V2000
   -7.5775   13.9228    0.0000 C   0  0  0  0  0  0  0  0  0  0  0  0
   -6.0782   13.9676    0.0000 C   0  0  0  0  0  0  0  0  0  0  0  0
   -5.3872   12.6362    0.0000 C   0  0  0  0  0  0  0  0  0  0  0  0
   -3.9155   12.3464    0.0000 C   0  0  0  0  0  0  0  0  0  0  0  0
   -2.7712   13.3163    0.0000 C   0  0  0  0  0  0  0  0  0  0  0  0
   -1.4009   12.7062    0.0000 C   0  0  0  0  0  0  0  0  0  0  0  0
   -0.1019   13.4562    0.0000 N   0  0  0  0  0  0  0  0  0  0  0  0
    1.0128   12.4525    0.0000 N   0  0  0  0  0  0  0  0  0  0  0  0
    0.4027   11.0821    0.0000 N   0  0  0  0  0  0  0  0  0  0  0  0
   -1.0891   11.2389    0.0000 N   0  0  0  0  0  0  0  0  0  0  0  0
   -2.0928   10.1242    0.0000 C   0  0  0  0  0  0  0  0  0  0  0  0
   -3.5907   10.0457    0.0000 N   0  0  0  0  0  0  0  0  0  0  0  0
   -3.5122    8.5478    0.0000 N   0  0  0  0  0  0  0  0  0  0  0  0
   -2.0143    8.6263    0.0000 N   0  0  0  0  0  0  0  0  0  0  0  0
   -0.8995    7.6226    0.0000 N   0  0  0  0  0  0  0  0  0  0  0  0
    0.5271    8.0861    0.0000 N   0  0  0  0  0  0  0  0  0  0  0  0
    1.6418    7.0824    0.0000 N   0  0  0  0  0  0  0  0  0  0  0  0
    1.3299    5.6152    0.0000 N   0  0  0  0  0  0  0  0  0  0  0  0
   -0.0967    5.1517    0.0000 N   0  0  0  0  0  0  0  0  0  0  0  0
   -1.2114    6.1554    0.0000 N   0  0  0  0  0  0  0  0  0  0  0  0
   -2.6380    5.6918    0.0000 C   0  0  0  0  0  0  0  0  0  0  0  0
   -3.7527    6.6955    0.0000 C   0  0  0  0  0  0  0  0  0  0  0  0
   -5.1793    6.2320    0.0000 C   0  0  0  0  0  0  0  0  0  0  0  0
   -5.4912    4.7648    0.0000 C   0  0  0  0  0  0  0  0  0  0  0  0
   -6.9177    4.3013    0.0000 C   0  0  0  0  0  0  0  0  0  0  0  0
   -7.3813    2.8747    0.0000 N   0  0  0  0  0  0  0  0  0  0  0  0
   -8.8813    2.8747    0.0000 N   0  0  0  0  0  0  0  0  0  0  0  0
   -9.3448    4.3013    0.0000 N   0  0  0  0  0  0  0  0  0  0  0  0
   -8.1313    5.1829    0.0000 N   0  0  0  0  0  0  0  0  0  0  0  0
   -8.1313    6.6829    0.0000 C   0  0  0  0  0  0  0  0  0  0  0  0
   -6.8322    7.4329    0.0000 C   0  0  0  0  0  0  0  0  0  0  0  0
   -6.8322    8.9329    0.0000 C   0  0  0  0  0  0  0  0  0  0  0  0
   -8.1313    9.6829    0.0000 C   0  0  0  0  0  0  0  0  0  0  0  0
   -9.4303    8.9329    0.0000 C   0  0  0  0  0  0  0  0  0  0  0  0
   -9.4303    7.4329    0.0000 C   0  0  0  0  0  0  0  0  0  0  0  0
   -4.3764    3.7611    0.0000 C   0  0  0  0  0  0  0  0  0  0  0  0
   -2.9499    4.2246    0.0000 C   0  0  0  0  0  0  0  0  0  0  0  0
   -1.8351    3.2209    0.0000 C   0  0  0  0  0  0  0  0  0  0  0  0
   -0.4086    3.6844    0.0000 C   0  0  0  0  0  0  0  0  0  0  0  0
    0.7062    2.6807    0.0000 C   0  0  0  0  0  0  0  0  0  0  0  0
    0.3943    1.2135    0.0000 C   0  0  0  0  0  0  0  0  0  0  0  0
    1.2760    0.0000    0.0000 C   0  0  0  0  0  0  0  0  0  0  0  0
    0.3943   -1.2135    0.0000 C   0  0  0  0  0  0  0  0  0  0  0  0
   -1.0323   -0.7500    0.0000 C   0  0  0  0  0  0  0  0  0  0  0  0
   -1.0323    0.7500    0.0000 C   0  0  0  0  0  0  0  0  0  0  0  0
   -2.1470    1.7537    0.0000 C   0  0  0  0  0  0  0  0  0  0  0  0
   -3.5736    1.2902    0.0000 O   0  0  0  0  0  0  0  0  0  0  0  0
   -2.8161   14.8156    0.0000 N   0  0  0  0  0  0  0  0  0  0  0  0
   -4.0163   15.7153    0.0000 C   0  0  0  0  0  0  0  0  0  0  0  0
   -5.4681   15.3379    0.0000 N   0  0  0  0  0  0  0  0  0  0  0  0
  1  2  1  0
  2  3  2  0
  3  4  1  0
  4  5  2  0
  5  6  1  0
  6  7  2  0
  7  8  1  0
  8  9  2  0
  9 10  1  0
 10 11  1  0
 11 12  1  0
 12 13  2  0
 13 14  1  0
 14 15  1  0
 15 16  1  0
 16 17  2  0
 17 18  1  0
 18 19  2  0
 19 20  1  0
 20 21  1  0
 21 22  2  0
 22 23  1  0
 23 24  2  0
 24 25  1  0
 25 26  2  0
 26 27  1  0
 27 28  2  0
 28 29  1  0
 29 30  1  0
 30 31  2  0
 31 32  1  0
 32 33  2  0
 33 34  1  0
 34 35  2  0
 24 36  1  0
 36 37  2  0
 37 38  1  0
 38 39  2  0
 39 40  1  0
 40 41  2  0
 41 42  1  0
 42 43  2  0
 43 44  1  0
 44 45  2  0
 45 46  1  0
 46 47  2  0
  5 48  1  0
 48 49  1  0
 49 50  1  0
 50  2  1  0
 10  6  1  0
 14 11  1  0
 20 15  1  0
 37 21  1  0
 46 38  1  0
 29 25  1  0
 35 30  1  0
 45 41  1  0
M  END
>  <Title>  (597) 
idAAWYgen8

$$$$

     RDKit          2D

 11 11  0  0  0  0  0  0  0  0999 V2000
    3.9271    0.0000    0.0000 N   0  0  0  0  0  0  0  0  0  0  0  0
    2.4271    0.0000    0.0000 C   0  0  0  0  0  0  0  0  0  0  0  0
    1.9635   -1.4266    0.0000 C   0  0  0  0  0  0  0  0  0  0  0  0
    0.7500   -2.3083    0.0000 C   0  0  0  0  0  0  0  0  0  0  0  0
   -0.7500   -2.3083    0.0000 C   0  0  0  0  0  0  0  0  0  0  0  0
   -1.9635   -1.4266    0.0000 C   0  0  0  0  0  0  0  0  0  0  0  0
   -2.4271    0.0000    0.0000 C   0  0  0  0  0  0  0  0  0  0  0  0
   -1.9635    1.4266    0.0000 C   0  0  0  0  0  0  0  0  0  0  0  0
   -0.7500    2.3083    0.0000 C   0  0  0  0  0  0  0  0  0  0  0  0
    0.7500    2.3083    0.0000 C   0  0  0  0  0  0  0  0  0  0  0  0
    1.9635    1.4266    0.0000 C   0  0  0  0  0  0  0  0  0  0  0  0
  1  2  1  0
  2  3  2  0
  3  4  1  0
  4  5  2  0
  5  6  1  0
  6  7  2  0
  7  8  1  0
  8  9  2  0
  9 10  1  0
 10 11  2  0
 11  2  1  0
M  END
>  <Title>  (598) 
idAAWZgen8

$$$$

     RDKit          2D

 42 48  0  0  0  0  0  0  0  0999 V2000
    3.0000    0.0000    0.0000 C   0  0  0  0  0  0  0  0  0  0  0  0
    1.5000    0.0000    0.0000 C   0  0  0  0  0  0  0  0  0  0  0  0
    0.7500   -1.2990    0.0000 C   0  0  0  0  0  0  0  0  0  0  0  0
   -0.7500   -1.2990    0.0000 C   0  0  0  0  0  0  0  0  0  0  0  0
   -1.5000    0.0000    0.0000 C   0  0  0  0  0  0  0  0  0  0  0  0
   -3.0000    0.0000    0.0000 C   0  0  0  0  0  0  0  0  0  0  0  0
   -3.8817   -1.2135    0.0000 N   0  0  0  0  0  0  0  0  0  0  0  0
   -5.3083   -0.7500    0.0000 N   0  0  0  0  0  0  0  0  0  0  0  0
   -5.3083    0.7500    0.0000 N   0  0  0  0  0  0  0  0  0  0  0  0
   -3.8817    1.2135    0.0000 N   0  0  0  0  0  0  0  0  0  0  0  0
   -3.4182    2.6401    0.0000 C   0  0  0  0  0  0  0  0  0  0  0  0
   -1.9509    2.9520    0.0000 C   0  0  0  0  0  0  0  0  0  0  0  0
   -1.4874    4.3786    0.0000 C   0  0  0  0  0  0  0  0  0  0  0  0
   -2.4911    5.4933    0.0000 C   0  0  0  0  0  0  0  0  0  0  0  0
   -2.0276    6.9199    0.0000 C   0  0  0  0  0  0  0  0  0  0  0  0
   -2.9093    8.1334    0.0000 N   0  0  0  0  0  0  0  0  0  0  0  0
   -2.0276    9.3469    0.0000 N   0  0  0  0  0  0  0  0  0  0  0  0
   -0.6010    8.8834    0.0000 N   0  0  0  0  0  0  0  0  0  0  0  0
   -0.6010    7.3834    0.0000 N   0  0  0  0  0  0  0  0  0  0  0  0
    0.6125    6.5017    0.0000 C   0  0  0  0  0  0  0  0  0  0  0  0
    0.4557    5.0099    0.0000 C   0  0  0  0  0  0  0  0  0  0  0  0
    1.6693    4.1283    0.0000 C   0  0  0  0  0  0  0  0  0  0  0  0
    3.0396    4.7384    0.0000 C   0  0  0  0  0  0  0  0  0  0  0  0
    3.1964    6.2301    0.0000 C   0  0  0  0  0  0  0  0  0  0  0  0
    1.9829    7.1118    0.0000 C   0  0  0  0  0  0  0  0  0  0  0  0
   -3.9583    5.1814    0.0000 C   0  0  0  0  0  0  0  0  0  0  0  0
   -4.4218    3.7548    0.0000 C   0  0  0  0  0  0  0  0  0  0  0  0
   -5.8891    3.4430    0.0000 C   0  0  0  0  0  0  0  0  0  0  0  0
   -6.4992    2.0726    0.0000 C   0  0  0  0  0  0  0  0  0  0  0  0
   -7.9910    2.2294    0.0000 N   0  0  0  0  0  0  0  0  0  0  0  0
   -8.3028    3.6967    0.0000 N   0  0  0  0  0  0  0  0  0  0  0  0
   -7.0038    4.4467    0.0000 N   0  0  0  0  0  0  0  0  0  0  0  0
   -6.8470    5.9384    0.0000 C   0  0  0  0  0  0  0  0  0  0  0  0
   -5.4767    6.5485    0.0000 C   0  0  0  0  0  0  0  0  0  0  0  0
   -5.3199    8.0403    0.0000 C   0  0  0  0  0  0  0  0  0  0  0  0
   -6.5334    8.9220    0.0000 C   0  0  0  0  0  0  0  0  0  0  0  0
   -6.3766   10.4138    0.0000 C   0  0  0  0  0  0  0  0  0  0  0  0
   -7.9037    8.3119    0.0000 C   0  0  0  0  0  0  0  0  0  0  0  0
   -9.1173    9.1936    0.0000 O   0  0  0  0  0  0  0  0  0  0  0  0
   -8.0605    6.8201    0.0000 N   0  0  0  0  0  0  0  0  0  0  0  0
   -0.7500    1.2990    0.0000 N   0  0  0  0  0  0  0  0  0  0  0  0
    0.7500    1.2990    0.0000 C   0  0  0  0  0  0  0  0  0  0  0  0
  1  2  1  0
  2  3  2  0
  3  4  1  0
  4  5  2  0
  5  6  1  0
  6  7  2  0
  7  8  1  0
  8  9  2  0
  9 10  1  0
 10 11  1  0
 11 12  2  0
 12 13  1  0
 13 14  2  0
 14 15  1  0
 15 16  2  0
 16 17  1  0
 17 18  2  0
 18 19  1  0
 19 20  1  0
 20 21  2  0
 21 22  1  0
 22 23  2  0
 23 24  1  0
 24 25  2  0
 14 26  1  0
 26 27  2  0
 27 28  1  0
 28 29  2  0
 29 30  1  0
 30 31  2  0
 31 32  1  0
 32 33  1  0
 33 34  2  0
 34 35  1  0
 35 36  2  0
 36 37  1  0
 36 38  1  0
 38 39  2  0
 38 40  1  0
  5 41  1  0
 41 42  1  0
 42  2  1  0
 10  6  1  0
 27 11  1  0
 32 28  1  0
 40 33  1  0
 19 15  1  0
 25 20  1  0
M  END
>  <Title>  (599) 
idAAXAgen8

$$$$

     RDKit          2D

 69 80  0  0  0  0  0  0  0  0999 V2000
  -15.2460   -4.2722    0.0000 C   0  0  0  0  0  0  0  0  0  0  0  0
  -14.4960   -2.9731    0.0000 C   0  0  0  0  0  0  0  0  0  0  0  0
  -15.2460   -1.6741    0.0000 C   0  0  0  0  0  0  0  0  0  0  0  0
  -14.4960   -0.3751    0.0000 C   0  0  0  0  0  0  0  0  0  0  0  0
  -12.9960   -0.3751    0.0000 C   0  0  0  0  0  0  0  0  0  0  0  0
  -12.2460    0.9240    0.0000 C   0  0  0  0  0  0  0  0  0  0  0  0
  -12.8561    2.2943    0.0000 N   0  0  0  0  0  0  0  0  0  0  0  0
  -11.7414    3.2980    0.0000 N   0  0  0  0  0  0  0  0  0  0  0  0
  -10.4424    2.5480    0.0000 N   0  0  0  0  0  0  0  0  0  0  0  0
  -10.7543    1.0808    0.0000 N   0  0  0  0  0  0  0  0  0  0  0  0
   -9.7506   -0.0339    0.0000 C   0  0  0  0  0  0  0  0  0  0  0  0
  -10.2141   -1.4605    0.0000 C   0  0  0  0  0  0  0  0  0  0  0  0
   -9.2104   -2.5752    0.0000 C   0  0  0  0  0  0  0  0  0  0  0  0
   -7.7432   -2.2634    0.0000 C   0  0  0  0  0  0  0  0  0  0  0  0
   -7.2796   -0.8368    0.0000 C   0  0  0  0  0  0  0  0  0  0  0  0
   -8.2833    0.2779    0.0000 C   0  0  0  0  0  0  0  0  0  0  0  0
   -7.8198    1.7045    0.0000 C   0  0  0  0  0  0  0  0  0  0  0  0
   -8.8235    2.8192    0.0000 C   0  0  0  0  0  0  0  0  0  0  0  0
   -8.3600    4.2458    0.0000 C   0  0  0  0  0  0  0  0  0  0  0  0
   -6.8928    4.5577    0.0000 C   0  0  0  0  0  0  0  0  0  0  0  0
   -6.4292    5.9843    0.0000 C   0  0  0  0  0  0  0  0  0  0  0  0
   -5.0027    6.4478    0.0000 C   0  0  0  0  0  0  0  0  0  0  0  0
   -5.0027    7.9478    0.0000 C   0  0  0  0  0  0  0  0  0  0  0  0
   -6.4292    8.4113    0.0000 C   0  0  0  0  0  0  0  0  0  0  0  0
   -7.3109    7.1978    0.0000 N   0  0  0  0  0  0  0  0  0  0  0  0
   -5.8891    3.4430    0.0000 C   0  0  0  0  0  0  0  0  0  0  0  0
   -6.3526    2.0164    0.0000 C   0  0  0  0  0  0  0  0  0  0  0  0
   -5.3489    0.9017    0.0000 N   0  0  0  0  0  0  0  0  0  0  0  0
   -5.8124   -0.5249    0.0000 N   0  0  0  0  0  0  0  0  0  0  0  0
   -4.8087   -1.6396    0.0000 N   0  0  0  0  0  0  0  0  0  0  0  0
   -3.3415   -1.3278    0.0000 N   0  0  0  0  0  0  0  0  0  0  0  0
   -2.8780    0.0988    0.0000 N   0  0  0  0  0  0  0  0  0  0  0  0
   -3.8817    1.2135    0.0000 N   0  0  0  0  0  0  0  0  0  0  0  0
   -3.4182    2.6401    0.0000 C   0  0  0  0  0  0  0  0  0  0  0  0
   -4.2998    3.8536    0.0000 C   0  0  0  0  0  0  0  0  0  0  0  0
   -3.4182    5.0672    0.0000 C   0  0  0  0  0  0  0  0  0  0  0  0
   -1.9916    4.6036    0.0000 N   0  0  0  0  0  0  0  0  0  0  0  0
   -1.9916    3.1036    0.0000 C   0  0  0  0  0  0  0  0  0  0  0  0
   -0.7780    2.2220    0.0000 C   0  0  0  0  0  0  0  0  0  0  0  0
   -0.9348    0.7302    0.0000 C   0  0  0  0  0  0  0  0  0  0  0  0
    0.2787   -0.1515    0.0000 C   0  0  0  0  0  0  0  0  0  0  0  0
    1.6490    0.4586    0.0000 C   0  0  0  0  0  0  0  0  0  0  0  0
    1.8058    1.9504    0.0000 C   0  0  0  0  0  0  0  0  0  0  0  0
    0.5923    2.8321    0.0000 C   0  0  0  0  0  0  0  0  0  0  0  0
    0.7491    4.3238    0.0000 C   0  0  0  0  0  0  0  0  0  0  0  0
    2.1194    4.9340    0.0000 C   0  0  0  0  0  0  0  0  0  0  0  0
    2.2762    6.4257    0.0000 C   0  0  0  0  0  0  0  0  0  0  0  0
    1.0627    7.3074    0.0000 C   0  0  0  0  0  0  0  0  0  0  0  0
    1.2194    8.7992    0.0000 C   0  0  0  0  0  0  0  0  0  0  0  0
    0.1047    9.8029    0.0000 N   0  0  0  0  0  0  0  0  0  0  0  0
    0.7148   11.1732    0.0000 N   0  0  0  0  0  0  0  0  0  0  0  0
    2.2066   11.0164    0.0000 N   0  0  0  0  0  0  0  0  0  0  0  0
    2.5185    9.5492    0.0000 N   0  0  0  0  0  0  0  0  0  0  0  0
    3.8888    8.9391    0.0000 C   0  0  0  0  0  0  0  0  0  0  0  0
    4.0456    7.4473    0.0000 C   0  0  0  0  0  0  0  0  0  0  0  0
    5.4159    6.8372    0.0000 C   0  0  0  0  0  0  0  0  0  0  0  0
    6.6294    7.7189    0.0000 C   0  0  0  0  0  0  0  0  0  0  0  0
    6.4726    9.2107    0.0000 C   0  0  0  0  0  0  0  0  0  0  0  0
    5.1023    9.8208    0.0000 C   0  0  0  0  0  0  0  0  0  0  0  0
    4.9455   11.3125    0.0000 C   0  0  0  0  0  0  0  0  0  0  0  0
    6.1591   12.1942    0.0000 C   0  0  0  0  0  0  0  0  0  0  0  0
    6.0023   13.6860    0.0000 C   0  0  0  0  0  0  0  0  0  0  0  0
    4.6320   14.2961    0.0000 C   0  0  0  0  0  0  0  0  0  0  0  0
    3.4184   13.4144    0.0000 C   0  0  0  0  0  0  0  0  0  0  0  0
    3.5752   11.9227    0.0000 C   0  0  0  0  0  0  0  0  0  0  0  0
   -0.3077    6.6973    0.0000 C   0  0  0  0  0  0  0  0  0  0  0  0
   -0.4645    5.2055    0.0000 C   0  0  0  0  0  0  0  0  0  0  0  0
  -12.2460   -1.6741    0.0000 C   0  0  0  0  0  0  0  0  0  0  0  0
  -12.9960   -2.9731    0.0000 C   0  0  0  0  0  0  0  0  0  0  0  0
  1  2  1  0
  2  3  2  0
  3  4  1  0
  4  5  2  0
  5  6  1  0
  6  7  2  0
  7  8  1  0
  8  9  2  0
  9 10  1  0
 10 11  1  0
 11 12  1  0
 12 13  1  0
 13 14  1  0
 14 15  1  0
 15 16  1  0
 16 17  1  0
 17 18  2  0
 18 19  1  0
 19 20  2  0
 20 21  1  0
 21 22  2  0
 22 23  1  0
 23 24  2  0
 24 25  1  0
 20 26  1  0
 26 27  2  0
 27 28  1  0
 28 29  1  0
 29 30  2  0
 30 31  1  0
 31 32  2  0
 32 33  1  0
 33 34  1  0
 34 35  2  0
 35 36  1  0
 36 37  2  0
 37 38  1  0
 38 39  1  0
 39 40  2  0
 40 41  1  0
 41 42  2  0
 42 43  1  0
 43 44  2  0
 44 45  1  0
 45 46  2  0
 46 47  1  0
 47 48  2  0
 48 49  1  0
 49 50  2  0
 50 51  1  0
 51 52  2  0
 52 53  1  0
 53 54  1  0
 54 55  2  0
 55 56  1  0
 56 57  2  0
 57 58  1  0
 58 59  2  0
 59 60  1  0
 60 61  2  0
 61 62  1  0
 62 63  2  0
 63 64  1  0
 64 65  2  0
 48 66  1  0
 66 67  2  0
  5 68  1  0
 68 69  2  0
 69  2  1  0
 10  6  1  0
 16 11  1  0
 27 17  1  0
 33 28  1  0
 38 34  1  0
 44 39  1  0
 67 45  1  0
 25 21  1  0
 53 49  1  0
 59 54  1  0
 65 60  1  0
M  END
>  <Title>  (600) 
idAAXBgen8

$$$$

     RDKit          2D

 31 31  0  0  0  0  0  0  0  0999 V2000
    8.6751   -0.0000    0.0000 O   0  0  0  0  0  0  0  0  0  0  0  0
    7.1751    0.0000    0.0000 C   0  0  0  0  0  0  0  0  0  0  0  0
    7.0183   -1.4918    0.0000 C   0  0  0  0  0  0  0  0  0  0  0  0
    6.5548   -2.9184    0.0000 C   0  0  0  0  0  0  0  0  0  0  0  0
    5.8048   -4.2174    0.0000 C   0  0  0  0  0  0  0  0  0  0  0  0
    4.8011   -5.3321    0.0000 C   0  0  0  0  0  0  0  0  0  0  0  0
    3.5875   -6.2138    0.0000 C   0  0  0  0  0  0  0  0  0  0  0  0
    2.2172   -6.8239    0.0000 C   0  0  0  0  0  0  0  0  0  0  0  0
    0.7500   -7.1358    0.0000 C   0  0  0  0  0  0  0  0  0  0  0  0
   -0.7500   -7.1358    0.0000 C   0  0  0  0  0  0  0  0  0  0  0  0
   -2.2172   -6.8239    0.0000 C   0  0  0  0  0  0  0  0  0  0  0  0
   -3.5875   -6.2138    0.0000 C   0  0  0  0  0  0  0  0  0  0  0  0
   -4.8011   -5.3321    0.0000 C   0  0  0  0  0  0  0  0  0  0  0  0
   -5.8048   -4.2174    0.0000 C   0  0  0  0  0  0  0  0  0  0  0  0
   -6.5548   -2.9184    0.0000 C   0  0  0  0  0  0  0  0  0  0  0  0
   -7.0183   -1.4918    0.0000 C   0  0  0  0  0  0  0  0  0  0  0  0
   -7.1751    0.0000    0.0000 C   0  0  0  0  0  0  0  0  0  0  0  0
   -7.0183    1.4918    0.0000 C   0  0  0  0  0  0  0  0  0  0  0  0
   -6.5548    2.9184    0.0000 C   0  0  0  0  0  0  0  0  0  0  0  0
   -5.8048    4.2174    0.0000 C   0  0  0  0  0  0  0  0  0  0  0  0
   -4.8011    5.3321    0.0000 C   0  0  0  0  0  0  0  0  0  0  0  0
   -3.5875    6.2138    0.0000 C   0  0  0  0  0  0  0  0  0  0  0  0
   -2.2172    6.8239    0.0000 C   0  0  0  0  0  0  0  0  0  0  0  0
   -0.7500    7.1358    0.0000 C   0  0  0  0  0  0  0  0  0  0  0  0
    0.7500    7.1358    0.0000 C   0  0  0  0  0  0  0  0  0  0  0  0
    2.2172    6.8239    0.0000 C   0  0  0  0  0  0  0  0  0  0  0  0
    3.5875    6.2138    0.0000 C   0  0  0  0  0  0  0  0  0  0  0  0
    4.8011    5.3321    0.0000 C   0  0  0  0  0  0  0  0  0  0  0  0
    5.8048    4.2174    0.0000 C   0  0  0  0  0  0  0  0  0  0  0  0
    6.5548    2.9184    0.0000 C   0  0  0  0  0  0  0  0  0  0  0  0
    7.0183    1.4918    0.0000 C   0  0  0  0  0  0  0  0  0  0  0  0
  1  2  1  0
  2  3  2  0
  3  4  1  0
  4  5  2  0
  5  6  1  0
  6  7  2  0
  7  8  1  0
  8  9  2  0
  9 10  1  0
 10 11  2  0
 11 12  1  0
 12 13  2  0
 13 14  1  0
 14 15  2  0
 15 16  1  0
 16 17  2  0
 17 18  1  0
 18 19  2  0
 19 20  1  0
 20 21  2  0
 21 22  1  0
 22 23  2  0
 23 24  1  0
 24 25  2  0
 25 26  1  0
 26 27  2  0
 27 28  1  0
 28 29  2  0
 29 30  1  0
 30 31  2  0
 31  2  1  0
M  END
>  <Title>  (601) 
idAAXCgen8

$$$$

     RDKit          2D

 51 58  0  0  0  0  0  0  0  0999 V2000
    3.2286   -0.0000    0.0000 C   0  0  0  0  0  0  0  0  0  0  0  0
    1.7286    0.0000    0.0000 C   0  0  0  0  0  0  0  0  0  0  0  0
    1.0777    1.3515    0.0000 C   0  0  0  0  0  0  0  0  0  0  0  0
   -0.3846    1.6852    0.0000 C   0  0  0  0  0  0  0  0  0  0  0  0
   -1.5574    0.7500    0.0000 C   0  0  0  0  0  0  0  0  0  0  0  0
   -2.9088    1.4008    0.0000 C   0  0  0  0  0  0  0  0  0  0  0  0
   -4.1482    0.5558    0.0000 O   0  0  0  0  0  0  0  0  0  0  0  0
   -3.0209    2.8966    0.0000 N   0  0  0  0  0  0  0  0  0  0  0  0
   -4.3724    3.5475    0.0000 C   0  0  0  0  0  0  0  0  0  0  0  0
   -5.6933    2.8367    0.0000 N   0  0  0  0  0  0  0  0  0  0  0  0
   -6.7775    3.8732    0.0000 N   0  0  0  0  0  0  0  0  0  0  0  0
   -6.1267    5.2247    0.0000 N   0  0  0  0  0  0  0  0  0  0  0  0
   -4.6402    5.0234    0.0000 N   0  0  0  0  0  0  0  0  0  0  0  0
   -3.6036    6.1075    0.0000 C   0  0  0  0  0  0  0  0  0  0  0  0
   -2.1464    5.7519    0.0000 C   0  0  0  0  0  0  0  0  0  0  0  0
   -1.1098    6.8361    0.0000 C   0  0  0  0  0  0  0  0  0  0  0  0
   -1.5304    8.2759    0.0000 C   0  0  0  0  0  0  0  0  0  0  0  0
   -2.9877    8.6315    0.0000 C   0  0  0  0  0  0  0  0  0  0  0  0
   -4.0243    7.5474    0.0000 C   0  0  0  0  0  0  0  0  0  0  0  0
   -5.4815    7.9030    0.0000 C   0  0  0  0  0  0  0  0  0  0  0  0
   -6.6258    6.9331    0.0000 N   0  0  0  0  0  0  0  0  0  0  0  0
   -7.9018    7.7216    0.0000 N   0  0  0  0  0  0  0  0  0  0  0  0
   -7.5462    9.1788    0.0000 N   0  0  0  0  0  0  0  0  0  0  0  0
   -6.0503    9.2909    0.0000 N   0  0  0  0  0  0  0  0  0  0  0  0
   -5.2618   10.5670    0.0000 C   0  0  0  0  0  0  0  0  0  0  0  0
   -5.8307   11.9549    0.0000 C   0  0  0  0  0  0  0  0  0  0  0  0
   -4.6864   12.9248    0.0000 C   0  0  0  0  0  0  0  0  0  0  0  0
   -3.4104   12.1363    0.0000 C   0  0  0  0  0  0  0  0  0  0  0  0
   -2.0224   12.7051    0.0000 C   0  0  0  0  0  0  0  0  0  0  0  0
   -0.7464   11.9166    0.0000 N   0  0  0  0  0  0  0  0  0  0  0  0
    0.3978   12.8865    0.0000 N   0  0  0  0  0  0  0  0  0  0  0  0
   -0.1710   14.2745    0.0000 N   0  0  0  0  0  0  0  0  0  0  0  0
   -1.6668   14.1624    0.0000 N   0  0  0  0  0  0  0  0  0  0  0  0
   -2.6367   15.3066    0.0000 C   0  0  0  0  0  0  0  0  0  0  0  0
   -4.1126   15.0388    0.0000 C   0  0  0  0  0  0  0  0  0  0  0  0
   -5.0825   16.1830    0.0000 C   0  0  0  0  0  0  0  0  0  0  0  0
   -4.5765   17.5951    0.0000 C   0  0  0  0  0  0  0  0  0  0  0  0
   -5.5464   18.7393    0.0000 C   0  0  0  0  0  0  0  0  0  0  0  0
   -7.0223   18.4715    0.0000 C   0  0  0  0  0  0  0  0  0  0  0  0
   -7.9922   19.6157    0.0000 C   0  0  0  0  0  0  0  0  0  0  0  0
   -7.4862   21.0278    0.0000 C   0  0  0  0  0  0  0  0  0  0  0  0
   -6.0103   21.2957    0.0000 C   0  0  0  0  0  0  0  0  0  0  0  0
   -5.0404   20.1514    0.0000 C   0  0  0  0  0  0  0  0  0  0  0  0
   -3.1006   17.8629    0.0000 C   0  0  0  0  0  0  0  0  0  0  0  0
   -2.1307   16.7187    0.0000 C   0  0  0  0  0  0  0  0  0  0  0  0
   -3.7660   10.6790    0.0000 C   0  0  0  0  0  0  0  0  0  0  0  0
   -2.7961    9.5348    0.0000 O   0  0  0  0  0  0  0  0  0  0  0  0
   -1.5574   -0.7500    0.0000 N   0  0  0  0  0  0  0  0  0  0  0  0
   -0.3846   -1.6852    0.0000 C   0  0  0  0  0  0  0  0  0  0  0  0
   -0.7184   -3.1476    0.0000 O   0  0  0  0  0  0  0  0  0  0  0  0
    1.0777   -1.3515    0.0000 N   0  0  0  0  0  0  0  0  0  0  0  0
  1  2  1  0
  2  3  2  0
  3  4  1  0
  4  5  2  0
  5  6  1  0
  6  7  2  0
  6  8  1  0
  8  9  1  0
  9 10  2  0
 10 11  1  0
 11 12  2  0
 12 13  1  0
 13 14  1  0
 14 15  1  0
 15 16  1  0
 16 17  1  0
 17 18  1  0
 18 19  1  0
 19 20  1  0
 20 21  2  0
 21 22  1  0
 22 23  2  0
 23 24  1  0
 24 25  1  0
 25 26  2  0
 26 27  1  0
 27 28  2  0
 28 29  1  0
 29 30  2  0
 30 31  1  0
 31 32  2  0
 32 33  1  0
 33 34  1  0
 34 35  2  0
 35 36  1  0
 36 37  2  0
 37 38  1  0
 38 39  2  0
 39 40  1  0
 40 41  2  0
 41 42  1  0
 42 43  2  0
 37 44  1  0
 44 45  2  0
 28 46  1  0
 46 47  2  0
  5 48  1  0
 48 49  1  0
 49 50  2  0
 49 51  1  0
 51  2  1  0
 13  9  1  0
 19 14  1  0
 24 20  1  0
 46 25  1  0
 33 29  1  0
 45 34  1  0
 43 38  1  0
M  END
>  <Title>  (602) 
idAAXDgen8

$$$$

     RDKit          2D

 39 44  0  0  0  0  0  0  0  0999 V2000
   -5.6321   10.5120    0.0000 C   0  0  0  0  0  0  0  0  0  0  0  0
   -4.4186    9.6303    0.0000 C   0  0  0  0  0  0  0  0  0  0  0  0
   -4.5754    8.1386    0.0000 C   0  0  0  0  0  0  0  0  0  0  0  0
   -3.3619    7.2569    0.0000 C   0  0  0  0  0  0  0  0  0  0  0  0
   -1.9916    7.8670    0.0000 C   0  0  0  0  0  0  0  0  0  0  0  0
   -0.7780    6.9853    0.0000 N   0  0  0  0  0  0  0  0  0  0  0  0
    0.6485    7.4488    0.0000 N   0  0  0  0  0  0  0  0  0  0  0  0
    1.5302    6.2353    0.0000 N   0  0  0  0  0  0  0  0  0  0  0  0
    0.6485    5.0218    0.0000 N   0  0  0  0  0  0  0  0  0  0  0  0
   -0.7780    5.4853    0.0000 C   0  0  0  0  0  0  0  0  0  0  0  0
   -1.9916    4.6036    0.0000 C   0  0  0  0  0  0  0  0  0  0  0  0
   -3.4182    5.0672    0.0000 N   0  0  0  0  0  0  0  0  0  0  0  0
   -4.2998    3.8536    0.0000 N   0  0  0  0  0  0  0  0  0  0  0  0
   -3.4182    2.6401    0.0000 N   0  0  0  0  0  0  0  0  0  0  0  0
   -1.9916    3.1036    0.0000 N   0  0  0  0  0  0  0  0  0  0  0  0
   -0.7780    2.2220    0.0000 C   0  0  0  0  0  0  0  0  0  0  0  0
    0.6485    2.6855    0.0000 C   0  0  0  0  0  0  0  0  0  0  0  0
    1.5302    1.4720    0.0000 C   0  0  0  0  0  0  0  0  0  0  0  0
    0.6485    0.2584    0.0000 C   0  0  0  0  0  0  0  0  0  0  0  0
    1.1121   -1.1682    0.0000 C   0  0  0  0  0  0  0  0  0  0  0  0
    2.5387   -1.6317    0.0000 N   0  0  0  0  0  0  0  0  0  0  0  0
    2.5387   -3.1317    0.0000 N   0  0  0  0  0  0  0  0  0  0  0  0
    1.1121   -3.5952    0.0000 N   0  0  0  0  0  0  0  0  0  0  0  0
    0.2304   -2.3817    0.0000 N   0  0  0  0  0  0  0  0  0  0  0  0
   -1.2696   -2.3817    0.0000 C   0  0  0  0  0  0  0  0  0  0  0  0
   -2.1513   -1.1682    0.0000 C   0  0  0  0  0  0  0  0  0  0  0  0
   -3.5779   -1.6317    0.0000 C   0  0  0  0  0  0  0  0  0  0  0  0
   -3.5779   -3.1317    0.0000 C   0  0  0  0  0  0  0  0  0  0  0  0
   -4.7914   -4.0134    0.0000 C   0  0  0  0  0  0  0  0  0  0  0  0
   -4.6346   -5.5051    0.0000 O   0  0  0  0  0  0  0  0  0  0  0  0
   -6.1617   -3.4033    0.0000 N   0  0  0  0  0  0  0  0  0  0  0  0
   -7.3752   -4.2849    0.0000 O   0  0  0  0  0  0  0  0  0  0  0  0
   -2.1513   -3.5952    0.0000 C   0  0  0  0  0  0  0  0  0  0  0  0
   -1.6878   -5.0218    0.0000 O   0  0  0  0  0  0  0  0  0  0  0  0
   -0.7780    0.7220    0.0000 C   0  0  0  0  0  0  0  0  0  0  0  0
   -1.9916   -0.1597    0.0000 O   0  0  0  0  0  0  0  0  0  0  0  0
   -1.8348    9.3588    0.0000 N   0  0  0  0  0  0  0  0  0  0  0  0
   -3.0483   10.2405    0.0000 C   0  0  0  0  0  0  0  0  0  0  0  0
   -2.8915   11.7322    0.0000 O   0  0  0  0  0  0  0  0  0  0  0  0
  1  2  1  0
  2  3  2  0
  3  4  1  0
  4  5  2  0
  5  6  1  0
  6  7  1  0
  7  8  2  0
  8  9  1  0
  9 10  2  0
 10 11  1  0
 11 12  2  0
 12 13  1  0
 13 14  2  0
 14 15  1  0
 15 16  1  0
 16 17  2  0
 17 18  1  0
 18 19  2  0
 19 20  1  0
 20 21  2  0
 21 22  1  0
 22 23  2  0
 23 24  1  0
 24 25  1  0
 25 26  2  0
 26 27  1  0
 27 28  2  0
 28 29  1  0
 29 30  2  0
 29 31  1  0
 31 32  1  0
 28 33  1  0
 33 34  2  0
 19 35  1  0
 35 36  2  0
  5 37  1  0
 37 38  1  0
 38 39  2  0
 38  2  1  0
 10  6  1  0
 15 11  1  0
 35 16  1  0
 24 20  1  0
 33 25  1  0
M  END
>  <Title>  (603) 
idAAXEgen8

$$$$

     RDKit          2D

 24 27  0  0  0  0  0  0  0  0999 V2000
    3.0000    0.0000    0.0000 C   0  0  0  0  0  0  0  0  0  0  0  0
    1.5000    0.0000    0.0000 C   0  0  0  0  0  0  0  0  0  0  0  0
    0.7500   -1.2990    0.0000 C   0  0  0  0  0  0  0  0  0  0  0  0
   -0.7500   -1.2990    0.0000 C   0  0  0  0  0  0  0  0  0  0  0  0
   -1.5000    0.0000    0.0000 C   0  0  0  0  0  0  0  0  0  0  0  0
   -3.0000    0.0000    0.0000 C   0  0  0  0  0  0  0  0  0  0  0  0
   -3.8817   -1.2135    0.0000 C   0  0  0  0  0  0  0  0  0  0  0  0
   -5.3083   -0.7500    0.0000 C   0  0  0  0  0  0  0  0  0  0  0  0
   -5.3083    0.7500    0.0000 C   0  0  0  0  0  0  0  0  0  0  0  0
   -3.8817    1.2135    0.0000 N   0  0  0  0  0  0  0  0  0  0  0  0
   -3.4182    2.6401    0.0000 C   0  0  0  0  0  0  0  0  0  0  0  0
   -1.9916    3.1036    0.0000 N   0  0  0  0  0  0  0  0  0  0  0  0
   -1.9916    4.6036    0.0000 N   0  0  0  0  0  0  0  0  0  0  0  0
   -3.4182    5.0672    0.0000 N   0  0  0  0  0  0  0  0  0  0  0  0
   -4.2998    3.8536    0.0000 N   0  0  0  0  0  0  0  0  0  0  0  0
   -5.7998    3.8536    0.0000 C   0  0  0  0  0  0  0  0  0  0  0  0
   -6.5498    5.1527    0.0000 C   0  0  0  0  0  0  0  0  0  0  0  0
   -8.0498    5.1527    0.0000 C   0  0  0  0  0  0  0  0  0  0  0  0
   -8.7998    3.8536    0.0000 C   0  0  0  0  0  0  0  0  0  0  0  0
  -10.2998    3.8536    0.0000 C   0  0  0  0  0  0  0  0  0  0  0  0
   -8.0498    2.5546    0.0000 C   0  0  0  0  0  0  0  0  0  0  0  0
   -6.5498    2.5546    0.0000 C   0  0  0  0  0  0  0  0  0  0  0  0
   -0.7500    1.2990    0.0000 C   0  0  0  0  0  0  0  0  0  0  0  0
    0.7500    1.2990    0.0000 C   0  0  0  0  0  0  0  0  0  0  0  0
  1  2  1  0
  2  3  2  0
  3  4  1  0
  4  5  2  0
  5  6  1  0
  6  7  2  0
  7  8  1  0
  8  9  2  0
  9 10  1  0
 10 11  1  0
 11 12  2  0
 12 13  1  0
 13 14  2  0
 14 15  1  0
 15 16  1  0
 16 17  2  0
 17 18  1  0
 18 19  2  0
 19 20  1  0
 19 21  1  0
 21 22  1  0
  5 23  1  0
 23 24  2  0
 24  2  1  0
 10  6  1  0
 15 11  1  0
 22 16  1  0
M  END
>  <Title>  (604) 
idAAXFgen8

$$$$

     RDKit          2D

 20 21  0  0  0  0  0  0  0  0999 V2000
    6.3211   -3.2397    0.0000 C   0  0  0  0  0  0  0  0  0  0  0  0
    4.8762   -3.6425    0.0000 C   0  0  0  0  0  0  0  0  0  0  0  0
    4.1393   -2.3360    0.0000 C   0  0  0  0  0  0  0  0  0  0  0  0
    2.8797   -1.5216    0.0000 C   0  0  0  0  0  0  0  0  0  0  0  0
    1.3858   -1.3858    0.0000 C   0  0  0  0  0  0  0  0  0  0  0  0
    1.9598    0.0000    0.0000 C   0  0  0  0  0  0  0  0  0  0  0  0
    1.3858    1.3858    0.0000 C   0  0  0  0  0  0  0  0  0  0  0  0
    0.0000    1.9598    0.0000 C   0  0  0  0  0  0  0  0  0  0  0  0
   -1.3858    1.3858    0.0000 C   0  0  0  0  0  0  0  0  0  0  0  0
   -1.9598    0.0000    0.0000 C   0  0  0  0  0  0  0  0  0  0  0  0
   -1.3858   -1.3858    0.0000 C   0  0  0  0  0  0  0  0  0  0  0  0
   -0.0000   -1.9598    0.0000 C   0  0  0  0  0  0  0  0  0  0  0  0
   -0.9603   -3.1121    0.0000 O   0  0  0  0  0  0  0  0  0  0  0  0
   -1.2751   -4.5787    0.0000 C   0  0  0  0  0  0  0  0  0  0  0  0
   -0.8723   -6.0236    0.0000 C   0  0  0  0  0  0  0  0  0  0  0  0
    0.1558   -7.1158    0.0000 C   0  0  0  0  0  0  0  0  0  0  0  0
    1.5737   -7.6052    0.0000 C   0  0  0  0  0  0  0  0  0  0  0  0
    3.0567   -7.3795    0.0000 C   0  0  0  0  0  0  0  0  0  0  0  0
    4.2648   -6.4905    0.0000 C   0  0  0  0  0  0  0  0  0  0  0  0
    4.9215   -5.1418    0.0000 C   0  0  0  0  0  0  0  0  0  0  0  0
  1  2  1  0
  2  3  2  0
  3  4  1  0
  4  5  2  0
  5  6  1  0
  6  7  2  0
  7  8  2  0
  8  9  1  0
  9 10  2  0
 10 11  1  0
 11 12  2  0
 12 13  1  0
 13 14  1  0
 14 15  1  0
 15 16  2  0
 16 17  1  0
 17 18  2  0
 18 19  1  0
 19 20  2  0
 20  2  1  0
 12  5  1  0
M  END
>  <Title>  (605) 
idAAXGgen8

$$$$

     RDKit          2D

 42 42  0  0  0  0  0  0  0  0999 V2000
   11.8091   -1.2990    0.0000 C   0  0  0  0  0  0  0  0  0  0  0  0
   11.0591    0.0000    0.0000 O   0  0  0  0  0  0  0  0  0  0  0  0
    9.5591    0.0000    0.0000 C   0  0  0  0  0  0  0  0  0  0  0  0
    9.4414   -1.4954    0.0000 C   0  0  0  0  0  0  0  0  0  0  0  0
    9.0913   -2.9539    0.0000 C   0  0  0  0  0  0  0  0  0  0  0  0
    8.5172   -4.3398    0.0000 C   0  0  0  0  0  0  0  0  0  0  0  0
    7.7335   -5.6187    0.0000 C   0  0  0  0  0  0  0  0  0  0  0  0
    6.7593   -6.7593    0.0000 C   0  0  0  0  0  0  0  0  0  0  0  0
    5.6187   -7.7335    0.0000 C   0  0  0  0  0  0  0  0  0  0  0  0
    4.3398   -8.5172    0.0000 C   0  0  0  0  0  0  0  0  0  0  0  0
    2.9539   -9.0913    0.0000 C   0  0  0  0  0  0  0  0  0  0  0  0
    1.4954   -9.4414    0.0000 C   0  0  0  0  0  0  0  0  0  0  0  0
   -0.0000   -9.5591    0.0000 C   0  0  0  0  0  0  0  0  0  0  0  0
   -1.4954   -9.4414    0.0000 C   0  0  0  0  0  0  0  0  0  0  0  0
   -2.9539   -9.0913    0.0000 C   0  0  0  0  0  0  0  0  0  0  0  0
   -4.3398   -8.5172    0.0000 C   0  0  0  0  0  0  0  0  0  0  0  0
   -5.6187   -7.7335    0.0000 C   0  0  0  0  0  0  0  0  0  0  0  0
   -6.7593   -6.7593    0.0000 C   0  0  0  0  0  0  0  0  0  0  0  0
   -7.7335   -5.6187    0.0000 C   0  0  0  0  0  0  0  0  0  0  0  0
   -8.5172   -4.3398    0.0000 C   0  0  0  0  0  0  0  0  0  0  0  0
   -9.0913   -2.9539    0.0000 C   0  0  0  0  0  0  0  0  0  0  0  0
   -9.4414   -1.4954    0.0000 C   0  0  0  0  0  0  0  0  0  0  0  0
   -9.5591    0.0000    0.0000 C   0  0  0  0  0  0  0  0  0  0  0  0
   -9.4414    1.4954    0.0000 C   0  0  0  0  0  0  0  0  0  0  0  0
   -9.0913    2.9539    0.0000 C   0  0  0  0  0  0  0  0  0  0  0  0
   -8.5172    4.3398    0.0000 C   0  0  0  0  0  0  0  0  0  0  0  0
   -7.7335    5.6187    0.0000 C   0  0  0  0  0  0  0  0  0  0  0  0
   -6.7593    6.7593    0.0000 C   0  0  0  0  0  0  0  0  0  0  0  0
   -5.6187    7.7335    0.0000 C   0  0  0  0  0  0  0  0  0  0  0  0
   -4.3398    8.5172    0.0000 C   0  0  0  0  0  0  0  0  0  0  0  0
   -2.9539    9.0913    0.0000 C   0  0  0  0  0  0  0  0  0  0  0  0
   -1.4954    9.4414    0.0000 C   0  0  0  0  0  0  0  0  0  0  0  0
    0.0000    9.5591    0.0000 C   0  0  0  0  0  0  0  0  0  0  0  0
    1.4954    9.4414    0.0000 C   0  0  0  0  0  0  0  0  0  0  0  0
    2.9539    9.0913    0.0000 C   0  0  0  0  0  0  0  0  0  0  0  0
    4.3398    8.5172    0.0000 C   0  0  0  0  0  0  0  0  0  0  0  0
    5.6187    7.7335    0.0000 C   0  0  0  0  0  0  0  0  0  0  0  0
    6.7593    6.7593    0.0000 C   0  0  0  0  0  0  0  0  0  0  0  0
    7.7335    5.6187    0.0000 C   0  0  0  0  0  0  0  0  0  0  0  0
    8.5172    4.3398    0.0000 C   0  0  0  0  0  0  0  0  0  0  0  0
    9.0913    2.9539    0.0000 C   0  0  0  0  0  0  0  0  0  0  0  0
    9.4414    1.4954    0.0000 C   0  0  0  0  0  0  0  0  0  0  0  0
  1  2  1  0
  2  3  1  0
  3  4  2  0
  4  5  1  0
  5  6  2  0
  6  7  1  0
  7  8  2  0
  8  9  1  0
  9 10  2  0
 10 11  1  0
 11 12  2  0
 12 13  1  0
 13 14  2  0
 14 15  1  0
 15 16  2  0
 16 17  1  0
 17 18  2  0
 18 19  1  0
 19 20  2  0
 20 21  1  0
 21 22  2  0
 22 23  1  0
 23 24  2  0
 24 25  1  0
 25 26  2  0
 26 27  1  0
 27 28  2  0
 28 29  1  0
 29 30  2  0
 30 31  1  0
 31 32  2  0
 32 33  1  0
 33 34  2  0
 34 35  1  0
 35 36  2  0
 36 37  1  0
 37 38  2  0
 38 39  1  0
 39 40  2  0
 40 41  1  0
 41 42  2  0
 42  3  1  0
M  END
>  <Title>  (606) 
idAAXHgen8

$$$$

     RDKit          2D

 23 23  0  0  0  0  0  0  0  0999 V2000
    7.0443   -1.2990    0.0000 C   0  0  0  0  0  0  0  0  0  0  0  0
    6.2943    0.0000    0.0000 O   0  0  0  0  0  0  0  0  0  0  0  0
    4.7943    0.0000    0.0000 C   0  0  0  0  0  0  0  0  0  0  0  0
    4.5597   -1.4815    0.0000 C   0  0  0  0  0  0  0  0  0  0  0  0
    3.8787   -2.8180    0.0000 C   0  0  0  0  0  0  0  0  0  0  0  0
    2.8180   -3.8787    0.0000 C   0  0  0  0  0  0  0  0  0  0  0  0
    1.4815   -4.5597    0.0000 C   0  0  0  0  0  0  0  0  0  0  0  0
   -0.0000   -4.7943    0.0000 C   0  0  0  0  0  0  0  0  0  0  0  0
   -1.4815   -4.5597    0.0000 C   0  0  0  0  0  0  0  0  0  0  0  0
   -2.8180   -3.8787    0.0000 C   0  0  0  0  0  0  0  0  0  0  0  0
   -3.8787   -2.8180    0.0000 C   0  0  0  0  0  0  0  0  0  0  0  0
   -4.5597   -1.4815    0.0000 C   0  0  0  0  0  0  0  0  0  0  0  0
   -4.7943    0.0000    0.0000 C   0  0  0  0  0  0  0  0  0  0  0  0
   -4.5597    1.4815    0.0000 C   0  0  0  0  0  0  0  0  0  0  0  0
   -3.8787    2.8180    0.0000 C   0  0  0  0  0  0  0  0  0  0  0  0
   -2.8180    3.8787    0.0000 C   0  0  0  0  0  0  0  0  0  0  0  0
   -1.4815    4.5597    0.0000 C   0  0  0  0  0  0  0  0  0  0  0  0
    0.0000    4.7943    0.0000 C   0  0  0  0  0  0  0  0  0  0  0  0
    1.4815    4.5597    0.0000 C   0  0  0  0  0  0  0  0  0  0  0  0
    2.8180    3.8787    0.0000 C   0  0  0  0  0  0  0  0  0  0  0  0
    3.8787    2.8180    0.0000 C   0  0  0  0  0  0  0  0  0  0  0  0
    4.5597    1.4815    0.0000 C   0  0  0  0  0  0  0  0  0  0  0  0
    5.9863    1.9451    0.0000 C   0  0  0  0  0  0  0  0  0  0  0  0
  1  2  1  0
  2  3  1  0
  3  4  2  0
  4  5  1  0
  5  6  2  0
  6  7  1  0
  7  8  2  0
  8  9  1  0
  9 10  2  0
 10 11  1  0
 11 12  2  0
 12 13  1  0
 13 14  2  0
 14 15  1  0
 15 16  2  0
 16 17  1  0
 17 18  2  0
 18 19  1  0
 19 20  2  0
 20 21  1  0
 21 22  2  0
 22 23  1  0
 22  3  1  0
M  END
>  <Title>  (607) 
idAAXIgen8

$$$$

     RDKit          2D

 33 37  0  0  0  0  0  0  0  0999 V2000
    3.0000    0.0000    0.0000 C   0  0  0  0  0  0  0  0  0  0  0  0
    1.5000    0.0000    0.0000 C   0  0  0  0  0  0  0  0  0  0  0  0
    0.7500    1.2990    0.0000 C   0  0  0  0  0  0  0  0  0  0  0  0
   -0.7500    1.2990    0.0000 C   0  0  0  0  0  0  0  0  0  0  0  0
   -1.5000    0.0000    0.0000 C   0  0  0  0  0  0  0  0  0  0  0  0
   -3.0000    0.0000    0.0000 C   0  0  0  0  0  0  0  0  0  0  0  0
   -3.7500   -1.2990    0.0000 O   0  0  0  0  0  0  0  0  0  0  0  0
   -3.7500    1.2990    0.0000 N   0  0  0  0  0  0  0  0  0  0  0  0
   -5.2500    1.2990    0.0000 C   0  0  0  0  0  0  0  0  0  0  0  0
   -6.1317    0.0855    0.0000 N   0  0  0  0  0  0  0  0  0  0  0  0
   -7.5583    0.5490    0.0000 N   0  0  0  0  0  0  0  0  0  0  0  0
   -7.5583    2.0490    0.0000 N   0  0  0  0  0  0  0  0  0  0  0  0
   -6.1317    2.5126    0.0000 N   0  0  0  0  0  0  0  0  0  0  0  0
   -5.6682    3.9391    0.0000 C   0  0  0  0  0  0  0  0  0  0  0  0
   -6.5498    5.1527    0.0000 C   0  0  0  0  0  0  0  0  0  0  0  0
   -5.6682    6.3662    0.0000 C   0  0  0  0  0  0  0  0  0  0  0  0
   -4.2416    5.9027    0.0000 C   0  0  0  0  0  0  0  0  0  0  0  0
   -3.0280    6.7844    0.0000 C   0  0  0  0  0  0  0  0  0  0  0  0
   -3.0280    8.2844    0.0000 N   0  0  0  0  0  0  0  0  0  0  0  0
   -1.6015    8.7479    0.0000 N   0  0  0  0  0  0  0  0  0  0  0  0
   -0.7198    7.5344    0.0000 N   0  0  0  0  0  0  0  0  0  0  0  0
   -1.6015    6.3208    0.0000 N   0  0  0  0  0  0  0  0  0  0  0  0
   -1.1379    4.8942    0.0000 C   0  0  0  0  0  0  0  0  0  0  0  0
   -2.1416    3.7795    0.0000 C   0  0  0  0  0  0  0  0  0  0  0  0
   -1.6781    2.3529    0.0000 C   0  0  0  0  0  0  0  0  0  0  0  0
   -0.2109    2.0411    0.0000 C   0  0  0  0  0  0  0  0  0  0  0  0
    0.7928    3.1558    0.0000 C   0  0  0  0  0  0  0  0  0  0  0  0
    0.3293    4.5824    0.0000 C   0  0  0  0  0  0  0  0  0  0  0  0
   -4.2416    4.4027    0.0000 C   0  0  0  0  0  0  0  0  0  0  0  0
   -3.0280    3.5210    0.0000 O   0  0  0  0  0  0  0  0  0  0  0  0
   -0.7500   -1.2990    0.0000 C   0  0  0  0  0  0  0  0  0  0  0  0
   -1.5000   -2.5981    0.0000 O   0  0  0  0  0  0  0  0  0  0  0  0
    0.7500   -1.2990    0.0000 N   0  0  0  0  0  0  0  0  0  0  0  0
  1  2  1  0
  2  3  2  0
  3  4  1  0
  4  5  2  0
  5  6  1  0
  6  7  2  0
  6  8  1  0
  8  9  1  0
  9 10  2  0
 10 11  1  0
 11 12  2  0
 12 13  1  0
 13 14  1  0
 14 15  2  0
 15 16  1  0
 16 17  2  0
 17 18  1  0
 18 19  2  0
 19 20  1  0
 20 21  2  0
 21 22  1  0
 22 23  1  0
 23 24  2  0
 24 25  1  0
 25 26  2  0
 26 27  1  0
 27 28  2  0
 17 29  1  0
 29 30  2  0
  5 31  1  0
 31 32  2  0
 31 33  1  0
 33  2  1  0
 13  9  1  0
 29 14  1  0
 22 18  1  0
 28 23  1  0
M  END
>  <Title>  (608) 
idAAXJgen8

$$$$

     RDKit          2D

 20 20  0  0  0  0  0  0  0  0999 V2000
    5.8191    0.0000    0.0000 C   0  0  0  0  0  0  0  0  0  0  0  0
    4.3191    0.0000    0.0000 C   0  0  0  0  0  0  0  0  0  0  0  0
    4.0586   -1.4772    0.0000 C   0  0  0  0  0  0  0  0  0  0  0  0
    3.3086   -2.7762    0.0000 C   0  0  0  0  0  0  0  0  0  0  0  0
    2.1595   -3.7404    0.0000 C   0  0  0  0  0  0  0  0  0  0  0  0
    0.7500   -4.2535    0.0000 C   0  0  0  0  0  0  0  0  0  0  0  0
   -0.7500   -4.2535    0.0000 C   0  0  0  0  0  0  0  0  0  0  0  0
   -2.1595   -3.7404    0.0000 C   0  0  0  0  0  0  0  0  0  0  0  0
   -3.3086   -2.7762    0.0000 C   0  0  0  0  0  0  0  0  0  0  0  0
   -4.0586   -1.4772    0.0000 C   0  0  0  0  0  0  0  0  0  0  0  0
   -4.3191    0.0000    0.0000 C   0  0  0  0  0  0  0  0  0  0  0  0
   -4.0586    1.4772    0.0000 C   0  0  0  0  0  0  0  0  0  0  0  0
   -3.3086    2.7762    0.0000 C   0  0  0  0  0  0  0  0  0  0  0  0
   -2.1595    3.7404    0.0000 C   0  0  0  0  0  0  0  0  0  0  0  0
   -0.7500    4.2535    0.0000 C   0  0  0  0  0  0  0  0  0  0  0  0
   -1.0105    5.7307    0.0000 C   0  0  0  0  0  0  0  0  0  0  0  0
    0.7500    4.2535    0.0000 C   0  0  0  0  0  0  0  0  0  0  0  0
    2.1595    3.7404    0.0000 C   0  0  0  0  0  0  0  0  0  0  0  0
    3.3086    2.7762    0.0000 C   0  0  0  0  0  0  0  0  0  0  0  0
    4.0586    1.4772    0.0000 C   0  0  0  0  0  0  0  0  0  0  0  0
  1  2  1  0
  2  3  2  0
  3  4  1  0
  4  5  2  0
  5  6  1  0
  6  7  2  0
  7  8  1  0
  8  9  2  0
  9 10  1  0
 10 11  2  0
 11 12  1  0
 12 13  2  0
 13 14  1  0
 14 15  2  0
 15 16  1  0
 15 17  1  0
 17 18  2  0
 18 19  1  0
 19 20  2  0
 20  2  1  0
M  END
>  <Title>  (609) 
idAAXKgen8

$$$$

     RDKit          2D

 21 23  0  0  0  0  0  0  0  0999 V2000
    3.0000    0.0000    0.0000 C   0  0  0  0  0  0  0  0  0  0  0  0
    1.5000    0.0000    0.0000 C   0  0  0  0  0  0  0  0  0  0  0  0
    0.7500   -1.2990    0.0000 C   0  0  0  0  0  0  0  0  0  0  0  0
   -0.7500   -1.2990    0.0000 C   0  0  0  0  0  0  0  0  0  0  0  0
   -1.5000    0.0000    0.0000 C   0  0  0  0  0  0  0  0  0  0  0  0
   -3.0000    0.0000    0.0000 N   0  0  0  0  0  0  0  0  0  0  0  0
   -3.8817   -1.2135    0.0000 N   0  0  0  0  0  0  0  0  0  0  0  0
   -5.3083   -0.7500    0.0000 N   0  0  0  0  0  0  0  0  0  0  0  0
   -5.3083    0.7500    0.0000 N   0  0  0  0  0  0  0  0  0  0  0  0
   -3.8817    1.2135    0.0000 C   0  0  0  0  0  0  0  0  0  0  0  0
   -3.4182    2.6401    0.0000 C   0  0  0  0  0  0  0  0  0  0  0  0
   -1.9509    2.9520    0.0000 C   0  0  0  0  0  0  0  0  0  0  0  0
   -1.4874    4.3786    0.0000 C   0  0  0  0  0  0  0  0  0  0  0  0
   -2.4911    5.4933    0.0000 C   0  0  0  0  0  0  0  0  0  0  0  0
   -2.0276    6.9199    0.0000 C   0  0  0  0  0  0  0  0  0  0  0  0
   -3.9583    5.1814    0.0000 C   0  0  0  0  0  0  0  0  0  0  0  0
   -4.9620    6.2961    0.0000 O   0  0  0  0  0  0  0  0  0  0  0  0
   -4.4218    3.7548    0.0000 N   0  0  0  0  0  0  0  0  0  0  0  0
   -0.7500    1.2990    0.0000 N   0  0  0  0  0  0  0  0  0  0  0  0
    0.7500    1.2990    0.0000 C   0  0  0  0  0  0  0  0  0  0  0  0
    1.5000    2.5981    0.0000 O   0  0  0  0  0  0  0  0  0  0  0  0
  1  2  1  0
  2  3  2  0
  3  4  1  0
  4  5  2  0
  5  6  1  0
  6  7  1  0
  7  8  2  0
  8  9  1  0
  9 10  2  0
 10 11  1  0
 11 12  1  0
 12 13  1  0
 13 14  1  0
 14 15  1  0
 14 16  1  0
 16 17  2  0
 16 18  1  0
  5 19  1  0
 19 20  1  0
 20 21  2  0
 20  2  1  0
 10  6  1  0
 18 11  1  0
M  END
>  <Title>  (610) 
idAAXLgen8

$$$$

     RDKit          2D

 55 63  0  0  0  0  0  0  0  0999 V2000
    3.0000    0.0000    0.0000 C   0  0  0  0  0  0  0  0  0  0  0  0
    1.5000    0.0000    0.0000 C   0  0  0  0  0  0  0  0  0  0  0  0
    0.7500   -1.2990    0.0000 C   0  0  0  0  0  0  0  0  0  0  0  0
   -0.7500   -1.2990    0.0000 C   0  0  0  0  0  0  0  0  0  0  0  0
   -1.5000    0.0000    0.0000 C   0  0  0  0  0  0  0  0  0  0  0  0
   -3.0000    0.0000    0.0000 C   0  0  0  0  0  0  0  0  0  0  0  0
   -3.8817   -1.2135    0.0000 C   0  0  0  0  0  0  0  0  0  0  0  0
   -5.3083   -0.7500    0.0000 N   0  0  0  0  0  0  0  0  0  0  0  0
   -5.3083    0.7500    0.0000 N   0  0  0  0  0  0  0  0  0  0  0  0
   -3.8817    1.2135    0.0000 N   0  0  0  0  0  0  0  0  0  0  0  0
   -3.4182    2.6401    0.0000 C   0  0  0  0  0  0  0  0  0  0  0  0
   -1.9509    2.9520    0.0000 C   0  0  0  0  0  0  0  0  0  0  0  0
   -1.4874    4.3786    0.0000 C   0  0  0  0  0  0  0  0  0  0  0  0
   -2.4911    5.4933    0.0000 C   0  0  0  0  0  0  0  0  0  0  0  0
   -2.0276    6.9199    0.0000 C   0  0  0  0  0  0  0  0  0  0  0  0
   -2.9093    8.1334    0.0000 N   0  0  0  0  0  0  0  0  0  0  0  0
   -2.0276    9.3469    0.0000 N   0  0  0  0  0  0  0  0  0  0  0  0
   -0.6010    8.8834    0.0000 N   0  0  0  0  0  0  0  0  0  0  0  0
   -0.6010    7.3834    0.0000 N   0  0  0  0  0  0  0  0  0  0  0  0
    0.6125    6.5017    0.0000 C   0  0  0  0  0  0  0  0  0  0  0  0
    0.4557    5.0099    0.0000 C   0  0  0  0  0  0  0  0  0  0  0  0
    1.6693    4.1283    0.0000 C   0  0  0  0  0  0  0  0  0  0  0  0
    3.0396    4.7384    0.0000 C   0  0  0  0  0  0  0  0  0  0  0  0
    3.1964    6.2301    0.0000 C   0  0  0  0  0  0  0  0  0  0  0  0
    1.9829    7.1118    0.0000 C   0  0  0  0  0  0  0  0  0  0  0  0
    2.1396    8.6036    0.0000 C   0  0  0  0  0  0  0  0  0  0  0  0
    0.9261    9.4853    0.0000 C   0  0  0  0  0  0  0  0  0  0  0  0
    1.0829   10.9771    0.0000 C   0  0  0  0  0  0  0  0  0  0  0  0
    2.4532   11.5872    0.0000 C   0  0  0  0  0  0  0  0  0  0  0  0
    2.6100   13.0789    0.0000 C   0  0  0  0  0  0  0  0  0  0  0  0
    1.3965   13.9606    0.0000 C   0  0  0  0  0  0  0  0  0  0  0  0
    1.5533   15.4524    0.0000 C   0  0  0  0  0  0  0  0  0  0  0  0
    2.9236   16.0625    0.0000 C   0  0  0  0  0  0  0  0  0  0  0  0
    4.1371   15.1808    0.0000 C   0  0  0  0  0  0  0  0  0  0  0  0
    3.9803   13.6891    0.0000 C   0  0  0  0  0  0  0  0  0  0  0  0
    3.6668   10.7055    0.0000 C   0  0  0  0  0  0  0  0  0  0  0  0
    3.5100    9.2137    0.0000 C   0  0  0  0  0  0  0  0  0  0  0  0
    4.7235    8.3320    0.0000 C   0  0  0  0  0  0  0  0  0  0  0  0
    6.0938    8.9421    0.0000 C   0  0  0  0  0  0  0  0  0  0  0  0
    7.3073    8.0605    0.0000 C   0  0  0  0  0  0  0  0  0  0  0  0
    7.1505    6.5687    0.0000 C   0  0  0  0  0  0  0  0  0  0  0  0
    5.7802    5.9586    0.0000 C   0  0  0  0  0  0  0  0  0  0  0  0
    4.5667    6.8402    0.0000 C   0  0  0  0  0  0  0  0  0  0  0  0
   -3.9583    5.1814    0.0000 C   0  0  0  0  0  0  0  0  0  0  0  0
   -4.4218    3.7548    0.0000 C   0  0  0  0  0  0  0  0  0  0  0  0
   -5.8891    3.4430    0.0000 C   0  0  0  0  0  0  0  0  0  0  0  0
   -6.8928    4.5577    0.0000 C   0  0  0  0  0  0  0  0  0  0  0  0
   -8.3600    4.2458    0.0000 C   0  0  0  0  0  0  0  0  0  0  0  0
   -8.8235    2.8192    0.0000 C   0  0  0  0  0  0  0  0  0  0  0  0
  -10.2907    2.5074    0.0000 C   0  0  0  0  0  0  0  0  0  0  0  0
   -7.8198    1.7045    0.0000 C   0  0  0  0  0  0  0  0  0  0  0  0
   -8.2833    0.2779    0.0000 O   0  0  0  0  0  0  0  0  0  0  0  0
   -6.3526    2.0164    0.0000 N   0  0  0  0  0  0  0  0  0  0  0  0
   -0.7500    1.2990    0.0000 N   0  0  0  0  0  0  0  0  0  0  0  0
    0.7500    1.2990    0.0000 N   0  0  0  0  0  0  0  0  0  0  0  0
  1  2  1  0
  2  3  2  0
  3  4  1  0
  4  5  2  0
  5  6  1  0
  6  7  2  0
  7  8  1  0
  8  9  2  0
  9 10  1  0
 10 11  1  0
 11 12  2  0
 12 13  1  0
 13 14  2  0
 14 15  1  0
 15 16  2  0
 16 17  1  0
 17 18  2  0
 18 19  1  0
 19 20  1  0
 20 21  2  0
 21 22  1  0
 22 23  2  0
 23 24  1  0
 24 25  2  0
 25 26  1  0
 26 27  2  0
 27 28  1  0
 28 29  2  0
 29 30  1  0
 30 31  2  0
 31 32  1  0
 32 33  2  0
 33 34  1  0
 34 35  2  0
 29 36  1  0
 36 37  2  0
 37 38  1  0
 38 39  2  0
 39 40  1  0
 40 41  2  0
 41 42  1  0
 42 43  2  0
 14 44  1  0
 44 45  2  0
 45 46  1  0
 46 47  2  0
 47 48  1  0
 48 49  2  0
 49 50  1  0
 49 51  1  0
 51 52  2  0
 51 53  1  0
  5 54  1  0
 54 55  2  0
 55  2  1  0
 10  6  1  0
 45 11  1  0
 53 46  1  0
 19 15  1  0
 25 20  1  0
 37 26  1  0
 43 38  1  0
 35 30  1  0
M  END
>  <Title>  (611) 
idAAXMgen8

$$$$

     RDKit          2D

  9  9  0  0  0  0  0  0  0  0999 V2000
    3.2286   -0.0000    0.0000 C   0  0  0  0  0  0  0  0  0  0  0  0
    1.7286    0.0000    0.0000 C   0  0  0  0  0  0  0  0  0  0  0  0
    1.0777    1.3515    0.0000 C   0  0  0  0  0  0  0  0  0  0  0  0
   -0.3846    1.6852    0.0000 C   0  0  0  0  0  0  0  0  0  0  0  0
   -1.5574    0.7500    0.0000 C   0  0  0  0  0  0  0  0  0  0  0  0
   -1.5574   -0.7500    0.0000 C   0  0  0  0  0  0  0  0  0  0  0  0
   -2.9088   -1.4008    0.0000 F   0  0  0  0  0  0  0  0  0  0  0  0
   -0.3846   -1.6852    0.0000 C   0  0  0  0  0  0  0  0  0  0  0  0
    1.0777   -1.3515    0.0000 C   0  0  0  0  0  0  0  0  0  0  0  0
  1  2  1  0
  2  3  2  0
  3  4  1  0
  4  5  2  0
  5  6  2  0
  6  7  1  0
  6  8  1  0
  8  9  2  0
  9  2  1  0
M  END
>  <Title>  (612) 
idAAXNgen8

$$$$

     RDKit          2D

 20 22  0  0  0  0  0  0  0  0999 V2000
    3.0000    0.0000    0.0000 C   0  0  0  0  0  0  0  0  0  0  0  0
    1.5000    0.0000    0.0000 C   0  0  0  0  0  0  0  0  0  0  0  0
    0.7500    1.2990    0.0000 C   0  0  0  0  0  0  0  0  0  0  0  0
   -0.7500    1.2990    0.0000 C   0  0  0  0  0  0  0  0  0  0  0  0
   -1.5000    0.0000    0.0000 C   0  0  0  0  0  0  0  0  0  0  0  0
   -3.0000    0.0000    0.0000 C   0  0  0  0  0  0  0  0  0  0  0  0
   -3.8817   -1.2135    0.0000 N   0  0  0  0  0  0  0  0  0  0  0  0
   -5.3083   -0.7500    0.0000 N   0  0  0  0  0  0  0  0  0  0  0  0
   -5.3083    0.7500    0.0000 N   0  0  0  0  0  0  0  0  0  0  0  0
   -3.8817    1.2135    0.0000 N   0  0  0  0  0  0  0  0  0  0  0  0
   -3.4182    2.6401    0.0000 C   0  0  0  0  0  0  0  0  0  0  0  0
   -4.2998    3.8536    0.0000 N   0  0  0  0  0  0  0  0  0  0  0  0
   -3.4182    5.0672    0.0000 C   0  0  0  0  0  0  0  0  0  0  0  0
   -3.8817    6.4937    0.0000 O   0  0  0  0  0  0  0  0  0  0  0  0
   -1.9916    4.6036    0.0000 C   0  0  0  0  0  0  0  0  0  0  0  0
   -0.7780    5.4853    0.0000 C   0  0  0  0  0  0  0  0  0  0  0  0
   -1.9916    3.1036    0.0000 N   0  0  0  0  0  0  0  0  0  0  0  0
   -0.7500   -1.2990    0.0000 C   0  0  0  0  0  0  0  0  0  0  0  0
   -1.5000   -2.5981    0.0000 O   0  0  0  0  0  0  0  0  0  0  0  0
    0.7500   -1.2990    0.0000 N   0  0  0  0  0  0  0  0  0  0  0  0
  1  2  1  0
  2  3  2  0
  3  4  1  0
  4  5  2  0
  5  6  1  0
  6  7  2  0
  7  8  1  0
  8  9  2  0
  9 10  1  0
 10 11  1  0
 11 12  1  0
 12 13  1  0
 13 14  2  0
 13 15  1  0
 15 16  1  0
 15 17  1  0
  5 18  1  0
 18 19  2  0
 18 20  1  0
 20  2  1  0
 10  6  1  0
 17 11  1  0
M  END
>  <Title>  (613) 
idAAXOgen8

$$$$

     RDKit          2D

 22 22  0  0  0  0  0  0  0  0999 V2000
    6.5321    0.0000    0.0000 C   0  0  0  0  0  0  0  0  0  0  0  0
    5.0321    0.0000    0.0000 N   0  0  0  0  0  0  0  0  0  0  0  0
    4.8086    1.4832    0.0000 C   0  0  0  0  0  0  0  0  0  0  0  0
    4.1577    2.8347    0.0000 C   0  0  0  0  0  0  0  0  0  0  0  0
    3.1375    3.9343    0.0000 C   0  0  0  0  0  0  0  0  0  0  0  0
    1.8384    4.6843    0.0000 C   0  0  0  0  0  0  0  0  0  0  0  0
    0.3761    5.0181    0.0000 C   0  0  0  0  0  0  0  0  0  0  0  0
   -1.1198    4.9060    0.0000 C   0  0  0  0  0  0  0  0  0  0  0  0
   -2.5161    4.3580    0.0000 C   0  0  0  0  0  0  0  0  0  0  0  0
   -3.6888    3.4227    0.0000 C   0  0  0  0  0  0  0  0  0  0  0  0
   -4.5338    2.1834    0.0000 C   0  0  0  0  0  0  0  0  0  0  0  0
   -4.9759    0.7500    0.0000 C   0  0  0  0  0  0  0  0  0  0  0  0
   -4.9759   -0.7500    0.0000 C   0  0  0  0  0  0  0  0  0  0  0  0
   -4.5338   -2.1834    0.0000 C   0  0  0  0  0  0  0  0  0  0  0  0
   -3.6888   -3.4227    0.0000 C   0  0  0  0  0  0  0  0  0  0  0  0
   -2.5161   -4.3580    0.0000 C   0  0  0  0  0  0  0  0  0  0  0  0
   -1.1198   -4.9060    0.0000 C   0  0  0  0  0  0  0  0  0  0  0  0
    0.3761   -5.0181    0.0000 C   0  0  0  0  0  0  0  0  0  0  0  0
    1.8384   -4.6843    0.0000 C   0  0  0  0  0  0  0  0  0  0  0  0
    3.1375   -3.9343    0.0000 C   0  0  0  0  0  0  0  0  0  0  0  0
    4.1577   -2.8347    0.0000 C   0  0  0  0  0  0  0  0  0  0  0  0
    4.8086   -1.4832    0.0000 C   0  0  0  0  0  0  0  0  0  0  0  0
  1  2  1  0
  2  3  1  0
  3  4  2  0
  4  5  1  0
  5  6  2  0
  6  7  1  0
  7  8  2  0
  8  9  1  0
  9 10  2  0
 10 11  1  0
 11 12  2  0
 12 13  1  0
 13 14  2  0
 14 15  1  0
 15 16  2  0
 16 17  1  0
 17 18  2  0
 18 19  1  0
 19 20  2  0
 20 21  1  0
 21 22  2  0
 22  2  1  0
M  END
>  <Title>  (614) 
idAAXPgen8

$$$$

     RDKit          2D

 34 38  0  0  0  0  0  0  0  0999 V2000
    3.4598   -0.0000    0.0000 C   0  0  0  0  0  0  0  0  0  0  0  0
    1.9598    0.0000    0.0000 C   0  0  0  0  0  0  0  0  0  0  0  0
    1.3858   -1.3858    0.0000 C   0  0  0  0  0  0  0  0  0  0  0  0
   -0.0000   -1.9598    0.0000 C   0  0  0  0  0  0  0  0  0  0  0  0
   -1.3858   -1.3858    0.0000 C   0  0  0  0  0  0  0  0  0  0  0  0
   -1.9598    0.0000    0.0000 C   0  0  0  0  0  0  0  0  0  0  0  0
   -1.3858    1.3858    0.0000 C   0  0  0  0  0  0  0  0  0  0  0  0
   -2.4465    2.4465    0.0000 N   0  0  0  0  0  0  0  0  0  0  0  0
   -2.0583    3.8954    0.0000 N   0  0  0  0  0  0  0  0  0  0  0  0
   -3.1189    4.9560    0.0000 N   0  0  0  0  0  0  0  0  0  0  0  0
   -4.5678    4.5678    0.0000 N   0  0  0  0  0  0  0  0  0  0  0  0
   -4.9560    3.1189    0.0000 C   0  0  0  0  0  0  0  0  0  0  0  0
   -6.4049    2.7307    0.0000 N   0  0  0  0  0  0  0  0  0  0  0  0
   -6.7931    1.2818    0.0000 N   0  0  0  0  0  0  0  0  0  0  0  0
   -8.2420    0.8936    0.0000 N   0  0  0  0  0  0  0  0  0  0  0  0
   -9.3027    1.9542    0.0000 N   0  0  0  0  0  0  0  0  0  0  0  0
   -8.9145    3.4031    0.0000 N   0  0  0  0  0  0  0  0  0  0  0  0
   -7.4656    3.7913    0.0000 N   0  0  0  0  0  0  0  0  0  0  0  0
   -7.0773    5.2402    0.0000 C   0  0  0  0  0  0  0  0  0  0  0  0
   -5.6770    5.7778    0.0000 N   0  0  0  0  0  0  0  0  0  0  0  0
   -5.7555    7.2757    0.0000 N   0  0  0  0  0  0  0  0  0  0  0  0
   -7.2044    7.6640    0.0000 N   0  0  0  0  0  0  0  0  0  0  0  0
   -8.0213    6.4060    0.0000 N   0  0  0  0  0  0  0  0  0  0  0  0
   -9.5193    6.3274    0.0000 C   0  0  0  0  0  0  0  0  0  0  0  0
  -10.2003    4.9909    0.0000 C   0  0  0  0  0  0  0  0  0  0  0  0
  -11.6982    4.9124    0.0000 C   0  0  0  0  0  0  0  0  0  0  0  0
  -12.5152    6.1704    0.0000 C   0  0  0  0  0  0  0  0  0  0  0  0
  -11.8342    7.5069    0.0000 C   0  0  0  0  0  0  0  0  0  0  0  0
  -10.3362    7.5855    0.0000 C   0  0  0  0  0  0  0  0  0  0  0  0
   -3.8954    2.0583    0.0000 C   0  0  0  0  0  0  0  0  0  0  0  0
   -4.2836    0.6094    0.0000 O   0  0  0  0  0  0  0  0  0  0  0  0
    0.0000    1.9598    0.0000 C   0  0  0  0  0  0  0  0  0  0  0  0
    0.0000    3.4598    0.0000 O   0  0  0  0  0  0  0  0  0  0  0  0
    1.3858    1.3858    0.0000 N   0  0  0  0  0  0  0  0  0  0  0  0
  1  2  1  0
  2  3  2  0
  3  4  1  0
  4  5  2  0
  5  6  1  0
  6  7  2  0
  7  8  1  0
  8  9  1  0
  9 10  2  0
 10 11  1  0
 11 12  2  0
 12 13  1  0
 13 14  1  0
 14 15  2  0
 15 16  1  0
 16 17  2  0
 17 18  1  0
 18 19  1  0
 19 20  2  0
 20 21  1  0
 21 22  2  0
 22 23  1  0
 23 24  1  0
 24 25  2  0
 25 26  1  0
 26 27  2  0
 27 28  1  0
 28 29  2  0
 12 30  1  0
 30 31  2  0
  7 32  1  0
 32 33  2  0
 32 34  1  0
 34  2  1  0
 30  8  1  0
 18 13  1  0
 23 19  1  0
 29 24  1  0
M  END
>  <Title>  (615) 
idAAXQgen8

$$$$

     RDKit          2D

 32 36  0  0  0  0  0  0  0  0999 V2000
    3.0000    0.0000    0.0000 C   0  0  0  0  0  0  0  0  0  0  0  0
    1.5000    0.0000    0.0000 C   0  0  0  0  0  0  0  0  0  0  0  0
    0.7500   -1.2990    0.0000 C   0  0  0  0  0  0  0  0  0  0  0  0
   -0.7500   -1.2990    0.0000 C   0  0  0  0  0  0  0  0  0  0  0  0
   -1.5000    0.0000    0.0000 C   0  0  0  0  0  0  0  0  0  0  0  0
   -3.0000    0.0000    0.0000 C   0  0  0  0  0  0  0  0  0  0  0  0
   -3.8817   -1.2135    0.0000 N   0  0  0  0  0  0  0  0  0  0  0  0
   -5.3083   -0.7500    0.0000 N   0  0  0  0  0  0  0  0  0  0  0  0
   -5.3083    0.7500    0.0000 N   0  0  0  0  0  0  0  0  0  0  0  0
   -3.8817    1.2135    0.0000 N   0  0  0  0  0  0  0  0  0  0  0  0
   -3.4182    2.6401    0.0000 C   0  0  0  0  0  0  0  0  0  0  0  0
   -1.9509    2.9520    0.0000 C   0  0  0  0  0  0  0  0  0  0  0  0
   -1.4874    4.3786    0.0000 C   0  0  0  0  0  0  0  0  0  0  0  0
   -2.4911    5.4933    0.0000 C   0  0  0  0  0  0  0  0  0  0  0  0
   -3.9583    5.1814    0.0000 C   0  0  0  0  0  0  0  0  0  0  0  0
   -4.4218    3.7548    0.0000 C   0  0  0  0  0  0  0  0  0  0  0  0
   -5.8891    3.4430    0.0000 C   0  0  0  0  0  0  0  0  0  0  0  0
   -6.4992    2.0726    0.0000 C   0  0  0  0  0  0  0  0  0  0  0  0
   -7.9910    2.2294    0.0000 N   0  0  0  0  0  0  0  0  0  0  0  0
   -8.3028    3.6967    0.0000 N   0  0  0  0  0  0  0  0  0  0  0  0
   -7.0038    4.4467    0.0000 N   0  0  0  0  0  0  0  0  0  0  0  0
   -6.8470    5.9384    0.0000 C   0  0  0  0  0  0  0  0  0  0  0  0
   -5.4767    6.5485    0.0000 C   0  0  0  0  0  0  0  0  0  0  0  0
   -5.3199    8.0403    0.0000 C   0  0  0  0  0  0  0  0  0  0  0  0
   -6.5334    8.9220    0.0000 C   0  0  0  0  0  0  0  0  0  0  0  0
   -6.3766   10.4138    0.0000 C   0  0  0  0  0  0  0  0  0  0  0  0
   -7.9037    8.3119    0.0000 C   0  0  0  0  0  0  0  0  0  0  0  0
   -9.1173    9.1936    0.0000 O   0  0  0  0  0  0  0  0  0  0  0  0
   -8.0605    6.8201    0.0000 N   0  0  0  0  0  0  0  0  0  0  0  0
   -0.7500    1.2990    0.0000 C   0  0  0  0  0  0  0  0  0  0  0  0
    0.7500    1.2990    0.0000 C   0  0  0  0  0  0  0  0  0  0  0  0
    1.5000    2.5981    0.0000 C   0  0  0  0  0  0  0  0  0  0  0  0
  1  2  1  0
  2  3  2  0
  3  4  1  0
  4  5  2  0
  5  6  1  0
  6  7  2  0
  7  8  1  0
  8  9  2  0
  9 10  1  0
 10 11  1  0
 11 12  1  0
 12 13  1  0
 13 14  1  0
 14 15  1  0
 15 16  1  0
 16 17  1  0
 17 18  2  0
 18 19  1  0
 19 20  2  0
 20 21  1  0
 21 22  1  0
 22 23  2  0
 23 24  1  0
 24 25  2  0
 25 26  1  0
 25 27  1  0
 27 28  2  0
 27 29  1  0
  5 30  1  0
 30 31  2  0
 31 32  1  0
 31  2  1  0
 10  6  1  0
 16 11  1  0
 21 17  1  0
 29 22  1  0
M  END
>  <Title>  (616) 
idAAXRgen8

$$$$

     RDKit          2D

 45 50  0  0  0  0  0  0  0  0999 V2000
   -8.2500   -6.4952    0.0000 C   0  0  0  0  0  0  0  0  0  0  0  0
   -7.5000   -5.1962    0.0000 C   0  0  0  0  0  0  0  0  0  0  0  0
   -6.0000   -5.1962    0.0000 C   0  0  0  0  0  0  0  0  0  0  0  0
   -5.2500   -3.8971    0.0000 C   0  0  0  0  0  0  0  0  0  0  0  0
   -6.0000   -2.5981    0.0000 C   0  0  0  0  0  0  0  0  0  0  0  0
   -5.2500   -1.2990    0.0000 N   0  0  0  0  0  0  0  0  0  0  0  0
   -6.0000    0.0000    0.0000 N   0  0  0  0  0  0  0  0  0  0  0  0
   -5.2500    1.2990    0.0000 N   0  0  0  0  0  0  0  0  0  0  0  0
   -3.7500    1.2990    0.0000 N   0  0  0  0  0  0  0  0  0  0  0  0
   -3.0000    0.0000    0.0000 N   0  0  0  0  0  0  0  0  0  0  0  0
   -3.7500   -1.2990    0.0000 N   0  0  0  0  0  0  0  0  0  0  0  0
   -3.0000   -2.5981    0.0000 C   0  0  0  0  0  0  0  0  0  0  0  0
   -3.7500   -3.8971    0.0000 C   0  0  0  0  0  0  0  0  0  0  0  0
   -3.0000   -5.1962    0.0000 C   0  0  0  0  0  0  0  0  0  0  0  0
   -1.5000   -5.1962    0.0000 C   0  0  0  0  0  0  0  0  0  0  0  0
   -0.7500   -6.4952    0.0000 C   0  0  0  0  0  0  0  0  0  0  0  0
    0.7500   -6.4952    0.0000 O   0  0  0  0  0  0  0  0  0  0  0  0
   -1.5000   -7.7942    0.0000 N   0  0  0  0  0  0  0  0  0  0  0  0
   -0.7500   -9.0933    0.0000 C   0  0  0  0  0  0  0  0  0  0  0  0
    0.7500   -9.0933    0.0000 O   0  0  0  0  0  0  0  0  0  0  0  0
   -1.5000  -10.3923    0.0000 C   0  0  0  0  0  0  0  0  0  0  0  0
   -0.8899  -11.7626    0.0000 N   0  0  0  0  0  0  0  0  0  0  0  0
   -2.0046  -12.7663    0.0000 N   0  0  0  0  0  0  0  0  0  0  0  0
   -3.3037  -12.0163    0.0000 N   0  0  0  0  0  0  0  0  0  0  0  0
   -2.9918  -10.5491    0.0000 N   0  0  0  0  0  0  0  0  0  0  0  0
   -3.9955   -9.4344    0.0000 C   0  0  0  0  0  0  0  0  0  0  0  0
   -3.5320   -8.0078    0.0000 C   0  0  0  0  0  0  0  0  0  0  0  0
   -4.5356   -6.8931    0.0000 C   0  0  0  0  0  0  0  0  0  0  0  0
   -6.0029   -7.2049    0.0000 C   0  0  0  0  0  0  0  0  0  0  0  0
   -6.4664   -8.6315    0.0000 C   0  0  0  0  0  0  0  0  0  0  0  0
   -5.4627   -9.7462    0.0000 C   0  0  0  0  0  0  0  0  0  0  0  0
   -0.7500   -3.8971    0.0000 C   0  0  0  0  0  0  0  0  0  0  0  0
   -1.5000   -2.5981    0.0000 C   0  0  0  0  0  0  0  0  0  0  0  0
   -0.7500   -1.2990    0.0000 C   0  0  0  0  0  0  0  0  0  0  0  0
    0.7500   -1.2990    0.0000 C   0  0  0  0  0  0  0  0  0  0  0  0
    1.5000   -0.0000    0.0000 C   0  0  0  0  0  0  0  0  0  0  0  0
    0.7500    1.2990    0.0000 C   0  0  0  0  0  0  0  0  0  0  0  0
    1.5000    2.5981    0.0000 C   0  0  0  0  0  0  0  0  0  0  0  0
    3.0000    2.5981    0.0000 O   0  0  0  0  0  0  0  0  0  0  0  0
    0.7500    3.8971    0.0000 N   0  0  0  0  0  0  0  0  0  0  0  0
    1.5000    5.1962    0.0000 O   0  0  0  0  0  0  0  0  0  0  0  0
   -0.7500    1.2990    0.0000 C   0  0  0  0  0  0  0  0  0  0  0  0
   -1.5000   -0.0000    0.0000 C   0  0  0  0  0  0  0  0  0  0  0  0
   -7.5000   -2.5981    0.0000 C   0  0  0  0  0  0  0  0  0  0  0  0
   -8.2500   -3.8971    0.0000 C   0  0  0  0  0  0  0  0  0  0  0  0
  1  2  1  0
  2  3  2  0
  3  4  1  0
  4  5  2  0
  5  6  1  0
  6  7  1  0
  7  8  2  0
  8  9  1  0
  9 10  2  0
 10 11  1  0
 11 12  1  0
 12 13  2  0
 13 14  1  0
 14 15  2  0
 15 16  1  0
 16 17  2  0
 16 18  1  0
 18 19  1  0
 19 20  2  0
 19 21  1  0
 21 22  2  0
 22 23  1  0
 23 24  2  0
 24 25  1  0
 25 26  1  0
 26 27  2  0
 27 28  1  0
 28 29  2  0
 29 30  1  0
 30 31  2  0
 15 32  1  0
 32 33  2  0
 33 34  1  0
 34 35  2  0
 35 36  1  0
 36 37  2  0
 37 38  1  0
 38 39  2  0
 38 40  1  0
 40 41  1  0
 37 42  1  0
 42 43  1  0
  5 44  1  0
 44 45  2  0
 45  2  1  0
 11  6  1  0
 33 12  1  0
 43 34  1  0
 25 21  1  0
 31 26  1  0
M  END
>  <Title>  (617) 
idAAXSgen8

$$$$

     RDKit          2D

 30 34  0  0  0  0  0  0  0  0999 V2000
    3.0000    0.0000    0.0000 C   0  0  0  0  0  0  0  0  0  0  0  0
    1.5000    0.0000    0.0000 C   0  0  0  0  0  0  0  0  0  0  0  0
    0.7500    1.2990    0.0000 C   0  0  0  0  0  0  0  0  0  0  0  0
   -0.7500    1.2990    0.0000 C   0  0  0  0  0  0  0  0  0  0  0  0
   -1.5000    0.0000    0.0000 C   0  0  0  0  0  0  0  0  0  0  0  0
   -3.0000    0.0000    0.0000 C   0  0  0  0  0  0  0  0  0  0  0  0
   -3.8817   -1.2135    0.0000 C   0  0  0  0  0  0  0  0  0  0  0  0
   -5.3083   -0.7500    0.0000 C   0  0  0  0  0  0  0  0  0  0  0  0
   -5.3083    0.7500    0.0000 C   0  0  0  0  0  0  0  0  0  0  0  0
   -3.8817    1.2135    0.0000 N   0  0  0  0  0  0  0  0  0  0  0  0
   -3.4182    2.6401    0.0000 C   0  0  0  0  0  0  0  0  0  0  0  0
   -4.2998    3.8536    0.0000 C   0  0  0  0  0  0  0  0  0  0  0  0
   -3.4182    5.0672    0.0000 C   0  0  0  0  0  0  0  0  0  0  0  0
   -1.9916    4.6036    0.0000 C   0  0  0  0  0  0  0  0  0  0  0  0
   -0.7780    5.4853    0.0000 C   0  0  0  0  0  0  0  0  0  0  0  0
    0.6485    5.0218    0.0000 N   0  0  0  0  0  0  0  0  0  0  0  0
    1.5302    6.2353    0.0000 N   0  0  0  0  0  0  0  0  0  0  0  0
    0.6485    7.4488    0.0000 N   0  0  0  0  0  0  0  0  0  0  0  0
   -0.7780    6.9853    0.0000 N   0  0  0  0  0  0  0  0  0  0  0  0
   -1.9916    7.8670    0.0000 C   0  0  0  0  0  0  0  0  0  0  0  0
   -3.3619    7.2569    0.0000 C   0  0  0  0  0  0  0  0  0  0  0  0
   -4.5754    8.1386    0.0000 C   0  0  0  0  0  0  0  0  0  0  0  0
   -4.4186    9.6303    0.0000 C   0  0  0  0  0  0  0  0  0  0  0  0
   -3.0483   10.2405    0.0000 C   0  0  0  0  0  0  0  0  0  0  0  0
   -1.8348    9.3588    0.0000 C   0  0  0  0  0  0  0  0  0  0  0  0
   -1.9916    3.1036    0.0000 C   0  0  0  0  0  0  0  0  0  0  0  0
   -0.7780    2.2220    0.0000 O   0  0  0  0  0  0  0  0  0  0  0  0
   -0.7500   -1.2990    0.0000 N   0  0  0  0  0  0  0  0  0  0  0  0
    0.7500   -1.2990    0.0000 C   0  0  0  0  0  0  0  0  0  0  0  0
    1.5000   -2.5981    0.0000 O   0  0  0  0  0  0  0  0  0  0  0  0
  1  2  1  0
  2  3  2  0
  3  4  1  0
  4  5  2  0
  5  6  1  0
  6  7  2  0
  7  8  1  0
  8  9  2  0
  9 10  1  0
 10 11  1  0
 11 12  2  0
 12 13  1  0
 13 14  2  0
 14 15  1  0
 15 16  2  0
 16 17  1  0
 17 18  2  0
 18 19  1  0
 19 20  1  0
 20 21  2  0
 21 22  1  0
 22 23  2  0
 23 24  1  0
 24 25  2  0
 14 26  1  0
 26 27  2  0
  5 28  1  0
 28 29  1  0
 29 30  2  0
 29  2  1  0
 10  6  1  0
 26 11  1  0
 19 15  1  0
 25 20  1  0
M  END
>  <Title>  (618) 
idAAXTgen8

$$$$

     RDKit          2D

 28 30  0  0  0  0  0  0  0  0999 V2000
  -10.0838    2.5309    0.0000 C   0  0  0  0  0  0  0  0  0  0  0  0
   -8.7847    3.2809    0.0000 O   0  0  0  0  0  0  0  0  0  0  0  0
   -7.4857    2.5309    0.0000 C   0  0  0  0  0  0  0  0  0  0  0  0
   -7.6815    1.0438    0.0000 C   0  0  0  0  0  0  0  0  0  0  0  0
   -6.7684   -0.1463    0.0000 C   0  0  0  0  0  0  0  0  0  0  0  0
   -5.2812   -0.3421    0.0000 C   0  0  0  0  0  0  0  0  0  0  0  0
   -4.0912    0.5711    0.0000 C   0  0  0  0  0  0  0  0  0  0  0  0
   -3.8954    2.0583    0.0000 C   0  0  0  0  0  0  0  0  0  0  0  0
   -2.4465    2.4465    0.0000 N   0  0  0  0  0  0  0  0  0  0  0  0
   -2.0583    3.8954    0.0000 C   0  0  0  0  0  0  0  0  0  0  0  0
   -3.0022    5.0611    0.0000 N   0  0  0  0  0  0  0  0  0  0  0  0
   -2.1853    6.3191    0.0000 N   0  0  0  0  0  0  0  0  0  0  0  0
   -0.7364    5.9309    0.0000 N   0  0  0  0  0  0  0  0  0  0  0  0
   -0.6579    4.4329    0.0000 N   0  0  0  0  0  0  0  0  0  0  0  0
    0.6001    3.6160    0.0000 C   0  0  0  0  0  0  0  0  0  0  0  0
    0.5216    2.1180    0.0000 C   0  0  0  0  0  0  0  0  0  0  0  0
    1.7796    1.3011    0.0000 C   0  0  0  0  0  0  0  0  0  0  0  0
    3.1161    1.9820    0.0000 C   0  0  0  0  0  0  0  0  0  0  0  0
    4.3741    1.1651    0.0000 C   0  0  0  0  0  0  0  0  0  0  0  0
    4.2956   -0.3329    0.0000 O   0  0  0  0  0  0  0  0  0  0  0  0
    5.7107    1.8461    0.0000 N   0  0  0  0  0  0  0  0  0  0  0  0
    6.9687    1.0291    0.0000 O   0  0  0  0  0  0  0  0  0  0  0  0
    3.1946    3.4800    0.0000 N   0  0  0  0  0  0  0  0  0  0  0  0
    1.9366    4.2969    0.0000 C   0  0  0  0  0  0  0  0  0  0  0  0
    2.0151    5.7949    0.0000 O   0  0  0  0  0  0  0  0  0  0  0  0
   -4.8085    3.2483    0.0000 N   0  0  0  0  0  0  0  0  0  0  0  0
   -6.2957    3.4441    0.0000 C   0  0  0  0  0  0  0  0  0  0  0  0
   -6.6839    4.8930    0.0000 O   0  0  0  0  0  0  0  0  0  0  0  0
  1  2  1  0
  2  3  1  0
  3  4  2  0
  4  5  1  0
  5  6  2  0
  6  7  1  0
  7  8  2  0
  8  9  1  0
  9 10  1  0
 10 11  2  0
 11 12  1  0
 12 13  2  0
 13 14  1  0
 14 15  1  0
 15 16  2  0
 16 17  1  0
 17 18  2  0
 18 19  1  0
 19 20  2  0
 19 21  1  0
 21 22  1  0
 18 23  1  0
 23 24  1  0
 24 25  2  0
  8 26  1  0
 26 27  1  0
 27 28  2  0
 27  3  1  0
 14 10  1  0
 24 15  1  0
M  END
>  <Title>  (619) 
idAAXUgen8

$$$$

     RDKit          2D

 54 62  0  0  0  0  0  0  0  0999 V2000
   -5.6420    1.0713    0.0000 C   0  0  0  0  0  0  0  0  0  0  0  0
   -5.7989    2.5631    0.0000 C   0  0  0  0  0  0  0  0  0  0  0  0
   -7.1693    3.1731    0.0000 C   0  0  0  0  0  0  0  0  0  0  0  0
   -7.3263    4.6648    0.0000 C   0  0  0  0  0  0  0  0  0  0  0  0
   -6.1128    5.5466    0.0000 C   0  0  0  0  0  0  0  0  0  0  0  0
   -6.2698    7.0384    0.0000 C   0  0  0  0  0  0  0  0  0  0  0  0
   -7.5689    7.7883    0.0000 N   0  0  0  0  0  0  0  0  0  0  0  0
   -7.2572    9.2555    0.0000 N   0  0  0  0  0  0  0  0  0  0  0  0
   -5.7654    9.4125    0.0000 N   0  0  0  0  0  0  0  0  0  0  0  0
   -5.1552    8.0422    0.0000 N   0  0  0  0  0  0  0  0  0  0  0  0
   -3.6879    7.7305    0.0000 C   0  0  0  0  0  0  0  0  0  0  0  0
   -3.2242    6.3040    0.0000 C   0  0  0  0  0  0  0  0  0  0  0  0
   -1.7570    5.9923    0.0000 C   0  0  0  0  0  0  0  0  0  0  0  0
   -0.7534    7.1071    0.0000 C   0  0  0  0  0  0  0  0  0  0  0  0
    0.7138    6.7954    0.0000 C   0  0  0  0  0  0  0  0  0  0  0  0
    1.8285    7.7992    0.0000 N   0  0  0  0  0  0  0  0  0  0  0  0
    3.1276    7.0493    0.0000 N   0  0  0  0  0  0  0  0  0  0  0  0
    2.8159    5.5821    0.0000 N   0  0  0  0  0  0  0  0  0  0  0  0
    1.3241    5.4251    0.0000 N   0  0  0  0  0  0  0  0  0  0  0  0
    0.5742    4.1260    0.0000 C   0  0  0  0  0  0  0  0  0  0  0  0
   -0.9216    4.2380    0.0000 C   0  0  0  0  0  0  0  0  0  0  0  0
   -1.9417    3.1383    0.0000 C   0  0  0  0  0  0  0  0  0  0  0  0
   -1.0964    1.8991    0.0000 C   0  0  0  0  0  0  0  0  0  0  0  0
    0.3808    2.1595    0.0000 C   0  0  0  0  0  0  0  0  0  0  0  0
   -0.0829    3.5861    0.0000 O   0  0  0  0  0  0  0  0  0  0  0  0
    1.6798    1.4095    0.0000 C   0  0  0  0  0  0  0  0  0  0  0  0
    2.1929    0.0000    0.0000 C   0  0  0  0  0  0  0  0  0  0  0  0
    1.6798   -1.4095    0.0000 C   0  0  0  0  0  0  0  0  0  0  0  0
    0.3808   -2.1595    0.0000 C   0  0  0  0  0  0  0  0  0  0  0  0
   -1.0964   -1.8991    0.0000 C   0  0  0  0  0  0  0  0  0  0  0  0
   -2.0606   -0.7500    0.0000 C   0  0  0  0  0  0  0  0  0  0  0  0
   -2.0606    0.7500    0.0000 C   0  0  0  0  0  0  0  0  0  0  0  0
   -1.4060    1.8236    0.0000 N   0  0  0  0  0  0  0  0  0  0  0  0
   -0.2580    1.6589    0.0000 N   0  0  0  0  0  0  0  0  0  0  0  0
    0.3292    2.9040    0.0000 N   0  0  0  0  0  0  0  0  0  0  0  0
    1.4194    2.8868    0.0000 N   0  0  0  0  0  0  0  0  0  0  0  0
   -1.2171    8.5336    0.0000 C   0  0  0  0  0  0  0  0  0  0  0  0
   -2.6843    8.8453    0.0000 C   0  0  0  0  0  0  0  0  0  0  0  0
   -3.1480   10.2719    0.0000 C   0  0  0  0  0  0  0  0  0  0  0  0
   -4.5747   10.7352    0.0000 C   0  0  0  0  0  0  0  0  0  0  0  0
   -4.5748   12.2352    0.0000 N   0  0  0  0  0  0  0  0  0  0  0  0
   -3.1483   12.6989    0.0000 N   0  0  0  0  0  0  0  0  0  0  0  0
   -2.2665   11.4855    0.0000 N   0  0  0  0  0  0  0  0  0  0  0  0
   -0.7665   11.4857    0.0000 C   0  0  0  0  0  0  0  0  0  0  0  0
   -0.0163   10.1867    0.0000 C   0  0  0  0  0  0  0  0  0  0  0  0
    1.4837   10.1869    0.0000 C   0  0  0  0  0  0  0  0  0  0  0  0
    2.2335   11.4860    0.0000 C   0  0  0  0  0  0  0  0  0  0  0  0
    3.7335   11.4861    0.0000 C   0  0  0  0  0  0  0  0  0  0  0  0
    1.4834   12.7849    0.0000 C   0  0  0  0  0  0  0  0  0  0  0  0
    2.2332   14.0841    0.0000 O   0  0  0  0  0  0  0  0  0  0  0  0
   -0.0166   12.7848    0.0000 N   0  0  0  0  0  0  0  0  0  0  0  0
   -4.7424    4.9367    0.0000 C   0  0  0  0  0  0  0  0  0  0  0  0
   -3.3517    5.4987    0.0000 O   0  0  0  0  0  0  0  0  0  0  0  0
   -4.5855    3.4449    0.0000 N   0  0  0  0  0  0  0  0  0  0  0  0
  1  2  1  0
  2  3  2  0
  3  4  1  0
  4  5  2  0
  5  6  1  0
  6  7  2  0
  7  8  1  0
  8  9  2  0
  9 10  1  0
 10 11  1  0
 11 12  2  0
 12 13  1  0
 13 14  2  0
 14 15  1  0
 15 16  2  0
 16 17  1  0
 17 18  2  0
 18 19  1  0
 19 20  1  0
 20 21  2  0
 21 22  1  0
 22 23  2  0
 23 24  1  0
 24 25  2  0
 24 26  1  0
 26 27  2  0
 27 28  1  0
 28 29  2  0
 29 30  1  0
 30 31  2  0
 31 32  1  0
 32 33  2  0
 33 34  1  0
 34 35  2  0
 35 36  1  0
 14 37  1  0
 37 38  2  0
 38 39  1  0
 39 40  2  0
 40 41  1  0
 41 42  2  0
 42 43  1  0
 43 44  1  0
 44 45  2  0
 45 46  1  0
 46 47  2  0
 47 48  1  0
 47 49  1  0
 49 50  2  0
 49 51  1  0
  5 52  1  0
 52 53  2  0
 52 54  1  0
 54  2  1  0
 10  6  1  0
 38 11  1  0
 43 39  1  0
 51 44  1  0
 19 15  1  0
 36 20  1  0
 32 23  1  0
 36 26  1  0
M  END
>  <Title>  (620) 
idAAXVgen8

$$$$

     RDKit          2D

  9  9  0  0  0  0  0  0  0  0999 V2000
    3.7500   -1.2990    0.0000 O   0  0  0  0  0  0  0  0  0  0  0  0
    3.0000    0.0000    0.0000 C   0  0  0  0  0  0  0  0  0  0  0  0
    1.5000    0.0000    0.0000 C   0  0  0  0  0  0  0  0  0  0  0  0
    0.7500   -1.2990    0.0000 C   0  0  0  0  0  0  0  0  0  0  0  0
   -0.7500   -1.2990    0.0000 C   0  0  0  0  0  0  0  0  0  0  0  0
   -1.5000    0.0000    0.0000 C   0  0  0  0  0  0  0  0  0  0  0  0
   -3.0000    0.0000    0.0000 F   0  0  0  0  0  0  0  0  0  0  0  0
   -0.7500    1.2990    0.0000 C   0  0  0  0  0  0  0  0  0  0  0  0
    0.7500    1.2990    0.0000 C   0  0  0  0  0  0  0  0  0  0  0  0
  1  2  1  0
  2  3  1  0
  3  4  2  0
  4  5  1  0
  5  6  2  0
  6  7  1  0
  6  8  1  0
  8  9  2  0
  9  3  1  0
M  END
>  <Title>  (621) 
idAAXWgen8

$$$$

     RDKit          2D

 33 38  0  0  0  0  0  0  0  0999 V2000
    1.5975    1.0513    0.0000 C   0  0  0  0  0  0  0  0  0  0  0  0
    0.2984    0.3013    0.0000 C   0  0  0  0  0  0  0  0  0  0  0  0
    0.2984   -1.1987    0.0000 C   0  0  0  0  0  0  0  0  0  0  0  0
   -1.0006   -1.9487    0.0000 C   0  0  0  0  0  0  0  0  0  0  0  0
   -2.2997   -1.1987    0.0000 C   0  0  0  0  0  0  0  0  0  0  0  0
   -3.5987   -1.9487    0.0000 C   0  0  0  0  0  0  0  0  0  0  0  0
   -3.7555   -3.4404    0.0000 N   0  0  0  0  0  0  0  0  0  0  0  0
   -5.2227   -3.7523    0.0000 N   0  0  0  0  0  0  0  0  0  0  0  0
   -5.9727   -2.4533    0.0000 N   0  0  0  0  0  0  0  0  0  0  0  0
   -4.9690   -1.3385    0.0000 N   0  0  0  0  0  0  0  0  0  0  0  0
   -5.2809    0.1287    0.0000 C   0  0  0  0  0  0  0  0  0  0  0  0
   -6.6512    0.7388    0.0000 C   0  0  0  0  0  0  0  0  0  0  0  0
   -6.4944    2.2306    0.0000 C   0  0  0  0  0  0  0  0  0  0  0  0
   -5.0272    2.5424    0.0000 C   0  0  0  0  0  0  0  0  0  0  0  0
   -4.4171    3.9127    0.0000 C   0  0  0  0  0  0  0  0  0  0  0  0
   -2.9499    4.2246    0.0000 N   0  0  0  0  0  0  0  0  0  0  0  0
   -2.7931    5.7164    0.0000 N   0  0  0  0  0  0  0  0  0  0  0  0
   -4.1634    6.3265    0.0000 N   0  0  0  0  0  0  0  0  0  0  0  0
   -5.1671    5.2118    0.0000 N   0  0  0  0  0  0  0  0  0  0  0  0
   -6.6589    5.3686    0.0000 C   0  0  0  0  0  0  0  0  0  0  0  0
   -7.5405    4.1551    0.0000 C   0  0  0  0  0  0  0  0  0  0  0  0
   -9.0323    4.3118    0.0000 C   0  0  0  0  0  0  0  0  0  0  0  0
   -9.6424    5.6822    0.0000 C   0  0  0  0  0  0  0  0  0  0  0  0
  -11.0690    6.1457    0.0000 C   0  0  0  0  0  0  0  0  0  0  0  0
  -11.0690    7.6457    0.0000 C   0  0  0  0  0  0  0  0  0  0  0  0
   -9.6424    8.1092    0.0000 C   0  0  0  0  0  0  0  0  0  0  0  0
   -8.7607    6.8957    0.0000 C   0  0  0  0  0  0  0  0  0  0  0  0
   -7.2690    6.7389    0.0000 C   0  0  0  0  0  0  0  0  0  0  0  0
   -6.3873    7.9524    0.0000 O   0  0  0  0  0  0  0  0  0  0  0  0
   -4.2772    1.2434    0.0000 C   0  0  0  0  0  0  0  0  0  0  0  0
   -2.7854    1.0866    0.0000 O   0  0  0  0  0  0  0  0  0  0  0  0
   -2.2997    0.3013    0.0000 C   0  0  0  0  0  0  0  0  0  0  0  0
   -1.0006    1.0513    0.0000 C   0  0  0  0  0  0  0  0  0  0  0  0
  1  2  1  0
  2  3  2  0
  3  4  1  0
  4  5  2  0
  5  6  1  0
  6  7  2  0
  7  8  1  0
  8  9  2  0
  9 10  1  0
 10 11  1  0
 11 12  2  0
 12 13  1  0
 13 14  2  0
 14 15  1  0
 15 16  2  0
 16 17  1  0
 17 18  2  0
 18 19  1  0
 19 20  1  0
 20 21  2  0
 21 22  1  0
 22 23  2  0
 23 24  1  0
 24 25  2  0
 25 26  1  0
 26 27  2  0
 27 28  1  0
 28 29  2  0
 14 30  1  0
 30 31  2  0
  5 32  1  0
 32 33  2  0
 33  2  1  0
 10  6  1  0
 30 11  1  0
 19 15  1  0
 28 20  1  0
 27 23  1  0
M  END
>  <Title>  (622) 
idAAXXgen8

$$$$

     RDKit          2D

 57 65  0  0  0  0  0  0  0  0999 V2000
   -0.9023   11.6309    0.0000 C   0  0  0  0  0  0  0  0  0  0  0  0
   -1.4465   10.2331    0.0000 C   0  0  0  0  0  0  0  0  0  0  0  0
   -0.6355    8.9712    0.0000 C   0  0  0  0  0  0  0  0  0  0  0  0
   -1.5851    7.8100    0.0000 C   0  0  0  0  0  0  0  0  0  0  0  0
   -2.9828    8.3542    0.0000 C   0  0  0  0  0  0  0  0  0  0  0  0
   -4.2447    7.5432    0.0000 C   0  0  0  0  0  0  0  0  0  0  0  0
   -5.6425    8.0874    0.0000 N   0  0  0  0  0  0  0  0  0  0  0  0
   -6.5920    6.9262    0.0000 N   0  0  0  0  0  0  0  0  0  0  0  0
   -5.7811    5.6643    0.0000 N   0  0  0  0  0  0  0  0  0  0  0  0
   -4.3304    6.0457    0.0000 N   0  0  0  0  0  0  0  0  0  0  0  0
   -3.1691    5.0962    0.0000 C   0  0  0  0  0  0  0  0  0  0  0  0
   -1.9309    5.9428    0.0000 C   0  0  0  0  0  0  0  0  0  0  0  0
   -0.4316    5.9857    0.0000 C   0  0  0  0  0  0  0  0  0  0  0  0
    0.8530    5.2111    0.0000 C   0  0  0  0  0  0  0  0  0  0  0  0
    1.9581    6.2253    0.0000 C   0  0  0  0  0  0  0  0  0  0  0  0
    1.7871    7.7155    0.0000 C   0  0  0  0  0  0  0  0  0  0  0  0
    3.1515    8.3387    0.0000 C   0  0  0  0  0  0  0  0  0  0  0  0
    4.1658    7.2336    0.0000 C   0  0  0  0  0  0  0  0  0  0  0  0
    5.6560    7.4045    0.0000 C   0  0  0  0  0  0  0  0  0  0  0  0
    6.2531    8.7806    0.0000 O   0  0  0  0  0  0  0  0  0  0  0  0
    6.5492    6.1995    0.0000 N   0  0  0  0  0  0  0  0  0  0  0  0
    8.0394    6.3705    0.0000 C   0  0  0  0  0  0  0  0  0  0  0  0
    8.7770    7.6766    0.0000 N   0  0  0  0  0  0  0  0  0  0  0  0
   10.2472    7.3787    0.0000 N   0  0  0  0  0  0  0  0  0  0  0  0
   10.4182    5.8885    0.0000 N   0  0  0  0  0  0  0  0  0  0  0  0
    9.0537    5.2653    0.0000 N   0  0  0  0  0  0  0  0  0  0  0  0
    8.7558    3.7952    0.0000 C   0  0  0  0  0  0  0  0  0  0  0  0
    7.3337    3.3181    0.0000 C   0  0  0  0  0  0  0  0  0  0  0  0
    7.0358    1.8480    0.0000 C   0  0  0  0  0  0  0  0  0  0  0  0
    8.1600    0.8550    0.0000 C   0  0  0  0  0  0  0  0  0  0  0  0
    9.5822    1.3321    0.0000 C   0  0  0  0  0  0  0  0  0  0  0  0
    9.8800    2.8022    0.0000 C   0  0  0  0  0  0  0  0  0  0  0  0
    3.4282    5.9274    0.0000 C   0  0  0  0  0  0  0  0  0  0  0  0
    4.0513    4.5630    0.0000 O   0  0  0  0  0  0  0  0  0  0  0  0
    1.5148    3.8650    0.0000 C   0  0  0  0  0  0  0  0  0  0  0  0
    2.9928    4.1207    0.0000 O   0  0  0  0  0  0  0  0  0  0  0  0
    1.3438    2.3747    0.0000 N   0  0  0  0  0  0  0  0  0  0  0  0
    0.3943    1.2135    0.0000 C   0  0  0  0  0  0  0  0  0  0  0  0
    1.2760    0.0000    0.0000 N   0  0  0  0  0  0  0  0  0  0  0  0
    0.3943   -1.2135    0.0000 N   0  0  0  0  0  0  0  0  0  0  0  0
   -1.0323   -0.7500    0.0000 N   0  0  0  0  0  0  0  0  0  0  0  0
   -1.0323    0.7500    0.0000 N   0  0  0  0  0  0  0  0  0  0  0  0
   -2.4830    1.1313    0.0000 C   0  0  0  0  0  0  0  0  0  0  0  0
   -3.6481    0.1866    0.0000 C   0  0  0  0  0  0  0  0  0  0  0  0
   -5.1132    0.5084    0.0000 C   0  0  0  0  0  0  0  0  0  0  0  0
   -5.7750    1.8545    0.0000 C   0  0  0  0  0  0  0  0  0  0  0  0
   -7.2749    1.8422    0.0000 C   0  0  0  0  0  0  0  0  0  0  0  0
   -8.0355    3.1351    0.0000 C   0  0  0  0  0  0  0  0  0  0  0  0
   -9.5355    3.1229    0.0000 C   0  0  0  0  0  0  0  0  0  0  0  0
  -10.2748    1.8178    0.0000 C   0  0  0  0  0  0  0  0  0  0  0  0
   -9.5143    0.5249    0.0000 C   0  0  0  0  0  0  0  0  0  0  0  0
   -8.0143    0.5371    0.0000 C   0  0  0  0  0  0  0  0  0  0  0  0
   -5.1352    3.2112    0.0000 C   0  0  0  0  0  0  0  0  0  0  0  0
   -3.7531    3.7145    0.0000 C   0  0  0  0  0  0  0  0  0  0  0  0
   -3.4973    2.2364    0.0000 C   0  0  0  0  0  0  0  0  0  0  0  0
   -4.8434    1.5746    0.0000 O   0  0  0  0  0  0  0  0  0  0  0  0
   -2.8972    9.8517    0.0000 N   0  0  0  0  0  0  0  0  0  0  0  0
  1  2  1  0
  2  3  2  0
  3  4  1  0
  4  5  2  0
  5  6  1  0
  6  7  2  0
  7  8  1  0
  8  9  2  0
  9 10  1  0
 10 11  1  0
 11 12  2  0
 12 13  1  0
 13 14  2  0
 14 15  1  0
 15 16  2  0
 16 17  1  0
 17 18  2  0
 18 19  1  0
 19 20  2  0
 19 21  1  0
 21 22  1  0
 22 23  2  0
 23 24  1  0
 24 25  2  0
 25 26  1  0
 26 27  1  0
 27 28  2  0
 28 29  1  0
 29 30  2  0
 30 31  1  0
 31 32  2  0
 18 33  1  0
 33 34  2  0
 14 35  1  0
 35 36  2  0
 35 37  1  0
 37 38  1  0
 38 39  2  0
 39 40  1  0
 40 41  2  0
 41 42  1  0
 42 43  1  0
 43 44  2  0
 44 45  1  0
 45 46  2  0
 46 47  1  0
 47 48  2  0
 48 49  1  0
 49 50  2  0
 50 51  1  0
 51 52  2  0
 46 53  1  0
 53 54  2  0
 54 55  1  0
 55 56  2  0
  5 57  1  0
 57  2  1  0
 10  6  1  0
 54 11  1  0
 33 15  1  0
 42 38  1  0
 55 43  1  0
 26 22  1  0
 32 27  1  0
 52 47  1  0
M  END
>  <Title>  (623) 
idAAXYgen8

$$$$

     RDKit          2D

 37 42  0  0  0  0  0  0  0  0999 V2000
   -1.6850   -0.9745    0.0000 C   0  0  0  0  0  0  0  0  0  0  0  0
   -1.7187   -2.4741    0.0000 C   0  0  0  0  0  0  0  0  0  0  0  0
   -3.0844   -3.0944    0.0000 C   0  0  0  0  0  0  0  0  0  0  0  0
   -3.4509   -4.5490    0.0000 C   0  0  0  0  0  0  0  0  0  0  0  0
   -2.5422   -5.7424    0.0000 C   0  0  0  0  0  0  0  0  0  0  0  0
   -3.2232   -7.0789    0.0000 C   0  0  0  0  0  0  0  0  0  0  0  0
   -2.5422   -8.4154    0.0000 N   0  0  0  0  0  0  0  0  0  0  0  0
   -3.6029   -9.4761    0.0000 N   0  0  0  0  0  0  0  0  0  0  0  0
   -4.9394   -8.7951    0.0000 N   0  0  0  0  0  0  0  0  0  0  0  0
   -4.7047   -7.3136    0.0000 N   0  0  0  0  0  0  0  0  0  0  0  0
   -5.7654   -6.2529    0.0000 C   0  0  0  0  0  0  0  0  0  0  0  0
   -7.2469   -6.4876    0.0000 C   0  0  0  0  0  0  0  0  0  0  0  0
   -7.9279   -5.1510    0.0000 C   0  0  0  0  0  0  0  0  0  0  0  0
   -6.8672   -4.0904    0.0000 C   0  0  0  0  0  0  0  0  0  0  0  0
   -7.1019   -2.6089    0.0000 C   0  0  0  0  0  0  0  0  0  0  0  0
   -6.0412   -1.5482    0.0000 N   0  0  0  0  0  0  0  0  0  0  0  0
   -6.7222   -0.2117    0.0000 N   0  0  0  0  0  0  0  0  0  0  0  0
   -8.2037   -0.4463    0.0000 N   0  0  0  0  0  0  0  0  0  0  0  0
   -8.4384   -1.9279    0.0000 N   0  0  0  0  0  0  0  0  0  0  0  0
   -9.7749   -2.6089    0.0000 C   0  0  0  0  0  0  0  0  0  0  0  0
  -10.8356   -1.5482    0.0000 C   0  0  0  0  0  0  0  0  0  0  0  0
  -12.3171   -1.3135    0.0000 C   0  0  0  0  0  0  0  0  0  0  0  0
  -13.6536   -1.9945    0.0000 C   0  0  0  0  0  0  0  0  0  0  0  0
  -14.3346   -3.3310    0.0000 C   0  0  0  0  0  0  0  0  0  0  0  0
  -14.0999   -4.8126    0.0000 N   0  0  0  0  0  0  0  0  0  0  0  0
  -13.0393   -5.8732    0.0000 N   0  0  0  0  0  0  0  0  0  0  0  0
  -11.5577   -6.1079    0.0000 N   0  0  0  0  0  0  0  0  0  0  0  0
  -10.2212   -5.4269    0.0000 N   0  0  0  0  0  0  0  0  0  0  0  0
   -9.5402   -4.0904    0.0000 C   0  0  0  0  0  0  0  0  0  0  0  0
  -15.6711   -2.6501    0.0000 C   0  0  0  0  0  0  0  0  0  0  0  0
  -14.9901   -1.3135    0.0000 C   0  0  0  0  0  0  0  0  0  0  0  0
   -5.5307   -4.7714    0.0000 C   0  0  0  0  0  0  0  0  0  0  0  0
   -4.1942   -4.0904    0.0000 O   0  0  0  0  0  0  0  0  0  0  0  0
   -1.0426   -5.7761    0.0000 N   0  0  0  0  0  0  0  0  0  0  0  0
   -0.0813   -4.6246    0.0000 C   0  0  0  0  0  0  0  0  0  0  0  0
    1.3733   -4.9911    0.0000 O   0  0  0  0  0  0  0  0  0  0  0  0
   -0.3821   -3.1551    0.0000 C   0  0  0  0  0  0  0  0  0  0  0  0
  1  2  1  0
  2  3  2  0
  3  4  1  0
  4  5  2  0
  5  6  1  0
  6  7  2  0
  7  8  1  0
  8  9  2  0
  9 10  1  0
 10 11  1  0
 11 12  2  0
 12 13  1  0
 13 14  2  0
 14 15  1  0
 15 16  2  0
 16 17  1  0
 17 18  2  0
 18 19  1  0
 19 20  1  0
 20 21  2  0
 21 22  1  0
 22 23  2  0
 23 24  1  0
 24 25  2  0
 25 26  1  0
 26 27  2  0
 27 28  1  0
 28 29  2  0
 24 30  1  0
 30 31  2  0
 14 32  1  0
 32 33  2  0
  5 34  1  0
 34 35  1  0
 35 36  2  0
 35 37  1  0
 37  2  1  0
 10  6  1  0
 32 11  1  0
 19 15  1  0
 29 20  1  0
 31 23  1  0
M  END
>  <Title>  (624) 
idAAXZgen8

$$$$

     RDKit          2D

 17 18  0  0  0  0  0  0  0  0999 V2000
   -0.7500   -6.4952    0.0000 O   0  0  0  0  0  0  0  0  0  0  0  0
    0.7500   -6.4952    0.0000 C   0  0  0  0  0  0  0  0  0  0  0  0
    1.5000   -5.1962    0.0000 N   0  0  0  0  0  0  0  0  0  0  0  0
    0.7500   -3.8971    0.0000 C   0  0  0  0  0  0  0  0  0  0  0  0
    1.5000   -2.5981    0.0000 C   0  0  0  0  0  0  0  0  0  0  0  0
    0.7500   -1.2990    0.0000 C   0  0  0  0  0  0  0  0  0  0  0  0
    1.5000    0.0000    0.0000 C   0  0  0  0  0  0  0  0  0  0  0  0
    0.7500    1.2990    0.0000 C   0  0  0  0  0  0  0  0  0  0  0  0
   -0.7500    1.2990    0.0000 C   0  0  0  0  0  0  0  0  0  0  0  0
   -1.5000    0.0000    0.0000 C   0  0  0  0  0  0  0  0  0  0  0  0
   -0.7500   -1.2990    0.0000 C   0  0  0  0  0  0  0  0  0  0  0  0
    1.5000   -7.7942    0.0000 C   0  0  0  0  0  0  0  0  0  0  0  0
    0.7500   -9.0933    0.0000 C   0  0  0  0  0  0  0  0  0  0  0  0
    1.5000  -10.3923    0.0000 C   0  0  0  0  0  0  0  0  0  0  0  0
    3.0000  -10.3923    0.0000 C   0  0  0  0  0  0  0  0  0  0  0  0
    3.7500   -9.0933    0.0000 C   0  0  0  0  0  0  0  0  0  0  0  0
    3.0000   -7.7942    0.0000 C   0  0  0  0  0  0  0  0  0  0  0  0
  1  2  2  0
  2  3  1  0
  3  4  1  0
  4  5  1  0
  5  6  1  0
  6  7  2  0
  7  8  1  0
  8  9  2  0
  9 10  1  0
 10 11  2  0
  2 12  1  0
 12 13  2  0
 13 14  1  0
 14 15  2  0
 15 16  1  0
 16 17  2  0
 11  6  1  0
 17 12  1  0
M  END
>  <Title>  (625) 
idAAYAgen8

$$$$

     RDKit          2D

 10 10  0  0  0  0  0  0  0  0999 V2000
    3.4598   -0.0000    0.0000 C   0  0  0  0  0  0  0  0  0  0  0  0
    1.9598    0.0000    0.0000 C   0  0  0  0  0  0  0  0  0  0  0  0
    1.3858   -1.3858    0.0000 C   0  0  0  0  0  0  0  0  0  0  0  0
   -0.0000   -1.9598    0.0000 C   0  0  0  0  0  0  0  0  0  0  0  0
   -1.3858   -1.3858    0.0000 C   0  0  0  0  0  0  0  0  0  0  0  0
   -1.9598    0.0000    0.0000 C   0  0  0  0  0  0  0  0  0  0  0  0
   -1.3858    1.3858    0.0000 C   0  0  0  0  0  0  0  0  0  0  0  0
   -2.4465    2.4465    0.0000 C   0  0  0  0  0  0  0  0  0  0  0  0
    0.0000    1.9598    0.0000 C   0  0  0  0  0  0  0  0  0  0  0  0
    1.3858    1.3858    0.0000 C   0  0  0  0  0  0  0  0  0  0  0  0
  1  2  1  0
  2  3  2  0
  3  4  1  0
  4  5  2  0
  5  6  1  0
  6  7  2  0
  7  8  1  0
  7  9  1  0
  9 10  1  0
 10  2  1  0
M  END
>  <Title>  (626) 
idAAYBgen8

$$$$

     RDKit          2D

 38 42  0  0  0  0  0  0  0  0999 V2000
    3.0000    0.0000    0.0000 C   0  0  0  0  0  0  0  0  0  0  0  0
    1.5000    0.0000    0.0000 C   0  0  0  0  0  0  0  0  0  0  0  0
    0.7500   -1.2990    0.0000 C   0  0  0  0  0  0  0  0  0  0  0  0
   -0.7500   -1.2990    0.0000 C   0  0  0  0  0  0  0  0  0  0  0  0
   -1.5000    0.0000    0.0000 C   0  0  0  0  0  0  0  0  0  0  0  0
   -3.0000    0.0000    0.0000 C   0  0  0  0  0  0  0  0  0  0  0  0
   -3.7500   -1.2990    0.0000 O   0  0  0  0  0  0  0  0  0  0  0  0
   -3.7500    1.2990    0.0000 N   0  0  0  0  0  0  0  0  0  0  0  0
   -5.2500    1.2990    0.0000 C   0  0  0  0  0  0  0  0  0  0  0  0
   -6.1317    0.0855    0.0000 N   0  0  0  0  0  0  0  0  0  0  0  0
   -7.5583    0.5490    0.0000 N   0  0  0  0  0  0  0  0  0  0  0  0
   -7.5583    2.0490    0.0000 N   0  0  0  0  0  0  0  0  0  0  0  0
   -6.1317    2.5126    0.0000 N   0  0  0  0  0  0  0  0  0  0  0  0
   -5.6682    3.9391    0.0000 C   0  0  0  0  0  0  0  0  0  0  0  0
   -4.2009    4.2510    0.0000 C   0  0  0  0  0  0  0  0  0  0  0  0
   -3.7374    5.6776    0.0000 C   0  0  0  0  0  0  0  0  0  0  0  0
   -4.7411    6.7923    0.0000 N   0  0  0  0  0  0  0  0  0  0  0  0
   -6.2083    6.4805    0.0000 N   0  0  0  0  0  0  0  0  0  0  0  0
   -6.6718    5.0539    0.0000 C   0  0  0  0  0  0  0  0  0  0  0  0
   -8.1391    4.7420    0.0000 N   0  0  0  0  0  0  0  0  0  0  0  0
   -9.1428    5.8567    0.0000 C   0  0  0  0  0  0  0  0  0  0  0  0
   -8.6792    7.2833    0.0000 O   0  0  0  0  0  0  0  0  0  0  0  0
  -10.6100    5.5448    0.0000 N   0  0  0  0  0  0  0  0  0  0  0  0
  -11.6137    6.6596    0.0000 C   0  0  0  0  0  0  0  0  0  0  0  0
  -11.3018    8.1268    0.0000 N   0  0  0  0  0  0  0  0  0  0  0  0
  -12.6009    8.8768    0.0000 N   0  0  0  0  0  0  0  0  0  0  0  0
  -13.7156    7.8731    0.0000 N   0  0  0  0  0  0  0  0  0  0  0  0
  -13.1055    6.5028    0.0000 N   0  0  0  0  0  0  0  0  0  0  0  0
  -13.8555    5.2037    0.0000 C   0  0  0  0  0  0  0  0  0  0  0  0
  -13.1055    3.9047    0.0000 C   0  0  0  0  0  0  0  0  0  0  0  0
  -13.8555    2.6057    0.0000 C   0  0  0  0  0  0  0  0  0  0  0  0
  -15.3555    2.6057    0.0000 C   0  0  0  0  0  0  0  0  0  0  0  0
  -16.1055    1.3066    0.0000 C   0  0  0  0  0  0  0  0  0  0  0  0
  -16.1055    3.9047    0.0000 C   0  0  0  0  0  0  0  0  0  0  0  0
  -17.6055    3.9047    0.0000 O   0  0  0  0  0  0  0  0  0  0  0  0
  -15.3555    5.2037    0.0000 N   0  0  0  0  0  0  0  0  0  0  0  0
   -0.7500    1.2990    0.0000 N   0  0  0  0  0  0  0  0  0  0  0  0
    0.7500    1.2990    0.0000 N   0  0  0  0  0  0  0  0  0  0  0  0
  1  2  1  0
  2  3  2  0
  3  4  1  0
  4  5  2  0
  5  6  1  0
  6  7  2  0
  6  8  1  0
  8  9  1  0
  9 10  2  0
 10 11  1  0
 11 12  2  0
 12 13  1  0
 13 14  1  0
 14 15  2  0
 15 16  1  0
 16 17  2  0
 17 18  1  0
 18 19  2  0
 19 20  1  0
 20 21  1  0
 21 22  2  0
 21 23  1  0
 23 24  1  0
 24 25  2  0
 25 26  1  0
 26 27  2  0
 27 28  1  0
 28 29  1  0
 29 30  2  0
 30 31  1  0
 31 32  2  0
 32 33  1  0
 32 34  1  0
 34 35  2  0
 34 36  1  0
  5 37  1  0
 37 38  2  0
 38  2  1  0
 13  9  1  0
 19 14  1  0
 28 24  1  0
 36 29  1  0
M  END
>  <Title>  (627) 
idAAYCgen8

$$$$

     RDKit          2D

 12 12  0  0  0  0  0  0  0  0999 V2000
    3.6929    0.0000    0.0000 C   0  0  0  0  0  0  0  0  0  0  0  0
    2.1929    0.0000    0.0000 C   0  0  0  0  0  0  0  0  0  0  0  0
    1.6798    1.4095    0.0000 C   0  0  0  0  0  0  0  0  0  0  0  0
    0.3808    2.1595    0.0000 C   0  0  0  0  0  0  0  0  0  0  0  0
   -1.0964    1.8991    0.0000 C   0  0  0  0  0  0  0  0  0  0  0  0
   -2.0606    0.7500    0.0000 C   0  0  0  0  0  0  0  0  0  0  0  0
   -2.0606   -0.7500    0.0000 C   0  0  0  0  0  0  0  0  0  0  0  0
   -1.0964   -1.8991    0.0000 C   0  0  0  0  0  0  0  0  0  0  0  0
   -1.8464   -3.1981    0.0000 O   0  0  0  0  0  0  0  0  0  0  0  0
    0.3808   -2.1595    0.0000 C   0  0  0  0  0  0  0  0  0  0  0  0
    1.6798   -1.4095    0.0000 C   0  0  0  0  0  0  0  0  0  0  0  0
    2.8289   -2.3737    0.0000 N   0  0  0  0  0  0  0  0  0  0  0  0
  1  2  1  0
  2  3  2  0
  3  4  1  0
  4  5  2  0
  5  6  2  0
  6  7  1  0
  7  8  2  0
  8  9  1  0
  8 10  1  0
 10 11  2  0
 11 12  1  0
 11  2  1  0
M  END
>  <Title>  (628) 
idAAYDgen8

$$$$

     RDKit          2D

 10 11  0  0  0  0  0  0  0  0999 V2000
   -2.9499    4.2246    0.0000 C   0  0  0  0  0  0  0  0  0  0  0  0
   -1.8351    3.2209    0.0000 C   0  0  0  0  0  0  0  0  0  0  0  0
   -0.4086    3.6844    0.0000 C   0  0  0  0  0  0  0  0  0  0  0  0
    0.7062    2.6807    0.0000 C   0  0  0  0  0  0  0  0  0  0  0  0
    0.3943    1.2135    0.0000 C   0  0  0  0  0  0  0  0  0  0  0  0
    1.2760    0.0000    0.0000 C   0  0  0  0  0  0  0  0  0  0  0  0
    0.3943   -1.2135    0.0000 C   0  0  0  0  0  0  0  0  0  0  0  0
   -1.0323   -0.7500    0.0000 C   0  0  0  0  0  0  0  0  0  0  0  0
   -1.0323    0.7500    0.0000 C   0  0  0  0  0  0  0  0  0  0  0  0
   -2.1470    1.7537    0.0000 C   0  0  0  0  0  0  0  0  0  0  0  0
  1  2  1  0
  2  3  2  0
  3  4  1  0
  4  5  2  0
  5  6  1  0
  6  7  2  0
  7  8  1  0
  8  9  2  0
  9 10  1  0
 10  2  1  0
  9  5  1  0
M  END
>  <Title>  (629) 
idAAYEgen8

$$$$

     RDKit          2D

 51 51  0  0  0  0  0  0  0  0999 V2000
   13.4445   -0.0000    0.0000 C   0  0  0  0  0  0  0  0  0  0  0  0
   11.9445    0.0000    0.0000 C   0  0  0  0  0  0  0  0  0  0  0  0
   11.8503   -1.4970    0.0000 C   0  0  0  0  0  0  0  0  0  0  0  0
   11.5692   -2.9705    0.0000 C   0  0  0  0  0  0  0  0  0  0  0  0
   11.1057   -4.3971    0.0000 C   0  0  0  0  0  0  0  0  0  0  0  0
   10.4670   -5.7543    0.0000 C   0  0  0  0  0  0  0  0  0  0  0  0
    9.6633   -7.0208    0.0000 C   0  0  0  0  0  0  0  0  0  0  0  0
    8.7071   -8.1766    0.0000 C   0  0  0  0  0  0  0  0  0  0  0  0
    7.6137   -9.2034    0.0000 C   0  0  0  0  0  0  0  0  0  0  0  0
    6.4002  -10.0851    0.0000 C   0  0  0  0  0  0  0  0  0  0  0  0
    5.0857  -10.8077    0.0000 C   0  0  0  0  0  0  0  0  0  0  0  0
    3.6910  -11.3599    0.0000 C   0  0  0  0  0  0  0  0  0  0  0  0
    2.2382  -11.7329    0.0000 C   0  0  0  0  0  0  0  0  0  0  0  0
    0.7500  -11.9209    0.0000 C   0  0  0  0  0  0  0  0  0  0  0  0
   -0.7500  -11.9209    0.0000 C   0  0  0  0  0  0  0  0  0  0  0  0
   -2.2382  -11.7329    0.0000 C   0  0  0  0  0  0  0  0  0  0  0  0
   -3.6910  -11.3599    0.0000 C   0  0  0  0  0  0  0  0  0  0  0  0
   -5.0857  -10.8077    0.0000 C   0  0  0  0  0  0  0  0  0  0  0  0
   -6.4002  -10.0851    0.0000 C   0  0  0  0  0  0  0  0  0  0  0  0
   -7.6137   -9.2034    0.0000 C   0  0  0  0  0  0  0  0  0  0  0  0
   -8.7071   -8.1766    0.0000 C   0  0  0  0  0  0  0  0  0  0  0  0
   -9.6633   -7.0208    0.0000 C   0  0  0  0  0  0  0  0  0  0  0  0
  -10.4670   -5.7543    0.0000 C   0  0  0  0  0  0  0  0  0  0  0  0
  -11.1057   -4.3971    0.0000 C   0  0  0  0  0  0  0  0  0  0  0  0
  -11.5692   -2.9705    0.0000 C   0  0  0  0  0  0  0  0  0  0  0  0
  -11.8503   -1.4970    0.0000 C   0  0  0  0  0  0  0  0  0  0  0  0
  -11.9445   -0.0000    0.0000 C   0  0  0  0  0  0  0  0  0  0  0  0
  -11.8503    1.4970    0.0000 C   0  0  0  0  0  0  0  0  0  0  0  0
  -11.5692    2.9705    0.0000 C   0  0  0  0  0  0  0  0  0  0  0  0
  -11.1057    4.3971    0.0000 C   0  0  0  0  0  0  0  0  0  0  0  0
  -10.4670    5.7543    0.0000 C   0  0  0  0  0  0  0  0  0  0  0  0
   -9.6633    7.0208    0.0000 C   0  0  0  0  0  0  0  0  0  0  0  0
   -8.7071    8.1766    0.0000 C   0  0  0  0  0  0  0  0  0  0  0  0
   -7.6137    9.2034    0.0000 C   0  0  0  0  0  0  0  0  0  0  0  0
   -6.4002   10.0851    0.0000 C   0  0  0  0  0  0  0  0  0  0  0  0
   -5.0857   10.8077    0.0000 C   0  0  0  0  0  0  0  0  0  0  0  0
   -3.6910   11.3599    0.0000 C   0  0  0  0  0  0  0  0  0  0  0  0
   -2.2382   11.7329    0.0000 C   0  0  0  0  0  0  0  0  0  0  0  0
   -0.7500   11.9209    0.0000 C   0  0  0  0  0  0  0  0  0  0  0  0
    0.7500   11.9209    0.0000 C   0  0  0  0  0  0  0  0  0  0  0  0
    2.2382   11.7329    0.0000 C   0  0  0  0  0  0  0  0  0  0  0  0
    3.6910   11.3599    0.0000 C   0  0  0  0  0  0  0  0  0  0  0  0
    5.0857   10.8077    0.0000 C   0  0  0  0  0  0  0  0  0  0  0  0
    6.4002   10.0851    0.0000 C   0  0  0  0  0  0  0  0  0  0  0  0
    7.6137    9.2034    0.0000 C   0  0  0  0  0  0  0  0  0  0  0  0
    8.7071    8.1766    0.0000 C   0  0  0  0  0  0  0  0  0  0  0  0
    9.6633    7.0208    0.0000 C   0  0  0  0  0  0  0  0  0  0  0  0
   10.4670    5.7543    0.0000 C   0  0  0  0  0  0  0  0  0  0  0  0
   11.1057    4.3971    0.0000 C   0  0  0  0  0  0  0  0  0  0  0  0
   11.5692    2.9705    0.0000 C   0  0  0  0  0  0  0  0  0  0  0  0
   11.8503    1.4970    0.0000 C   0  0  0  0  0  0  0  0  0  0  0  0
  1  2  1  0
  2  3  2  0
  3  4  1  0
  4  5  2  0
  5  6  1  0
  6  7  2  0
  7  8  1  0
  8  9  2  0
  9 10  1  0
 10 11  2  0
 11 12  1  0
 12 13  2  0
 13 14  1  0
 14 15  2  0
 15 16  1  0
 16 17  2  0
 17 18  1  0
 18 19  2  0
 19 20  1  0
 20 21  2  0
 21 22  1  0
 22 23  2  0
 23 24  1  0
 24 25  2  0
 25 26  1  0
 26 27  2  0
 27 28  1  0
 28 29  2  0
 29 30  1  0
 30 31  2  0
 31 32  1  0
 32 33  2  0
 33 34  1  0
 34 35  2  0
 35 36  1  0
 36 37  2  0
 37 38  1  0
 38 39  2  0
 39 40  1  0
 40 41  2  0
 41 42  1  0
 42 43  2  0
 43 44  1  0
 44 45  2  0
 45 46  1  0
 46 47  2  0
 47 48  1  0
 48 49  2  0
 49 50  1  0
 50 51  2  0
 51  2  1  0
M  END
>  <Title>  (630) 
idAAYFgen8

$$$$

     RDKit          2D

 13 13  0  0  0  0  0  0  0  0999 V2000
    4.6771   -1.2990    0.0000 C   0  0  0  0  0  0  0  0  0  0  0  0
    3.9271    0.0000    0.0000 O   0  0  0  0  0  0  0  0  0  0  0  0
    2.4271    0.0000    0.0000 C   0  0  0  0  0  0  0  0  0  0  0  0
    1.9635   -1.4266    0.0000 C   0  0  0  0  0  0  0  0  0  0  0  0
    0.7500   -2.3083    0.0000 C   0  0  0  0  0  0  0  0  0  0  0  0
   -0.7500   -2.3083    0.0000 C   0  0  0  0  0  0  0  0  0  0  0  0
   -1.9635   -1.4266    0.0000 C   0  0  0  0  0  0  0  0  0  0  0  0
   -2.4271    0.0000    0.0000 C   0  0  0  0  0  0  0  0  0  0  0  0
   -3.9271    0.0000    0.0000 F   0  0  0  0  0  0  0  0  0  0  0  0
   -1.9635    1.4266    0.0000 C   0  0  0  0  0  0  0  0  0  0  0  0
   -0.7500    2.3083    0.0000 C   0  0  0  0  0  0  0  0  0  0  0  0
    0.7500    2.3083    0.0000 C   0  0  0  0  0  0  0  0  0  0  0  0
    1.9635    1.4266    0.0000 C   0  0  0  0  0  0  0  0  0  0  0  0
  1  2  1  0
  2  3  1  0
  3  4  2  0
  4  5  1  0
  5  6  2  0
  6  7  1  0
  7  8  2  0
  8  9  1  0
  8 10  1  0
 10 11  2  0
 11 12  1  0
 12 13  2  0
 13  3  1  0
M  END
>  <Title>  (631) 
idAAYGgen8

$$$$

     RDKit          2D

 11 11  0  0  0  0  0  0  0  0999 V2000
    3.4598   -0.0000    0.0000 C   0  0  0  0  0  0  0  0  0  0  0  0
    1.9598    0.0000    0.0000 C   0  0  0  0  0  0  0  0  0  0  0  0
    1.3858   -1.3858    0.0000 C   0  0  0  0  0  0  0  0  0  0  0  0
   -0.0000   -1.9598    0.0000 C   0  0  0  0  0  0  0  0  0  0  0  0
   -1.3858   -1.3858    0.0000 C   0  0  0  0  0  0  0  0  0  0  0  0
   -1.9598    0.0000    0.0000 C   0  0  0  0  0  0  0  0  0  0  0  0
   -1.3858    1.3858    0.0000 C   0  0  0  0  0  0  0  0  0  0  0  0
   -2.4465    2.4465    0.0000 F   0  0  0  0  0  0  0  0  0  0  0  0
    0.0000    1.9598    0.0000 C   0  0  0  0  0  0  0  0  0  0  0  0
    1.3858    1.3858    0.0000 C   0  0  0  0  0  0  0  0  0  0  0  0
    2.4465    2.4465    0.0000 C   0  0  0  0  0  0  0  0  0  0  0  0
  1  2  1  0
  2  3  2  0
  3  4  1  0
  4  5  2  0
  5  6  1  0
  6  7  2  0
  7  8  1  0
  7  9  1  0
  9 10  2  0
 10 11  1  0
 10  2  1  0
M  END
>  <Title>  (632) 
idAAYHgen8

$$$$

     RDKit          2D

 41 46  0  0  0  0  0  0  0  0999 V2000
    3.0000    0.0000    0.0000 C   0  0  0  0  0  0  0  0  0  0  0  0
    1.5000    0.0000    0.0000 C   0  0  0  0  0  0  0  0  0  0  0  0
    0.7500   -1.2990    0.0000 C   0  0  0  0  0  0  0  0  0  0  0  0
   -0.7500   -1.2990    0.0000 C   0  0  0  0  0  0  0  0  0  0  0  0
   -1.5000    0.0000    0.0000 C   0  0  0  0  0  0  0  0  0  0  0  0
   -3.0000    0.0000    0.0000 N   0  0  0  0  0  0  0  0  0  0  0  0
   -3.7500    1.2990    0.0000 N   0  0  0  0  0  0  0  0  0  0  0  0
   -5.2500    1.2990    0.0000 N   0  0  0  0  0  0  0  0  0  0  0  0
   -6.0000    0.0000    0.0000 N   0  0  0  0  0  0  0  0  0  0  0  0
   -5.2500   -1.2990    0.0000 N   0  0  0  0  0  0  0  0  0  0  0  0
   -3.7500   -1.2990    0.0000 N   0  0  0  0  0  0  0  0  0  0  0  0
   -3.0000   -2.5981    0.0000 C   0  0  0  0  0  0  0  0  0  0  0  0
   -1.5082   -2.7549    0.0000 N   0  0  0  0  0  0  0  0  0  0  0  0
   -1.1963   -4.2221    0.0000 C   0  0  0  0  0  0  0  0  0  0  0  0
   -2.4954   -4.9721    0.0000 C   0  0  0  0  0  0  0  0  0  0  0  0
   -3.6101   -3.9684    0.0000 C   0  0  0  0  0  0  0  0  0  0  0  0
   -5.0773   -4.2803    0.0000 C   0  0  0  0  0  0  0  0  0  0  0  0
   -5.6874   -5.6506    0.0000 C   0  0  0  0  0  0  0  0  0  0  0  0
   -7.1792   -5.4938    0.0000 C   0  0  0  0  0  0  0  0  0  0  0  0
   -7.4911   -4.0266    0.0000 C   0  0  0  0  0  0  0  0  0  0  0  0
   -8.8614   -3.4165    0.0000 C   0  0  0  0  0  0  0  0  0  0  0  0
  -10.0749   -4.2981    0.0000 O   0  0  0  0  0  0  0  0  0  0  0  0
   -9.0182   -1.9247    0.0000 N   0  0  0  0  0  0  0  0  0  0  0  0
  -10.3885   -1.3146    0.0000 C   0  0  0  0  0  0  0  0  0  0  0  0
  -11.6020   -2.1963    0.0000 O   0  0  0  0  0  0  0  0  0  0  0  0
  -10.5453    0.1772    0.0000 C   0  0  0  0  0  0  0  0  0  0  0  0
   -9.4306    1.1809    0.0000 N   0  0  0  0  0  0  0  0  0  0  0  0
  -10.0407    2.5512    0.0000 N   0  0  0  0  0  0  0  0  0  0  0  0
  -11.5325    2.3944    0.0000 N   0  0  0  0  0  0  0  0  0  0  0  0
  -11.8443    0.9272    0.0000 N   0  0  0  0  0  0  0  0  0  0  0  0
  -13.2147    0.3171    0.0000 C   0  0  0  0  0  0  0  0  0  0  0  0
  -14.4282    1.1988    0.0000 C   0  0  0  0  0  0  0  0  0  0  0  0
  -15.7985    0.5887    0.0000 C   0  0  0  0  0  0  0  0  0  0  0  0
  -15.9553   -0.9031    0.0000 C   0  0  0  0  0  0  0  0  0  0  0  0
  -14.7418   -1.7848    0.0000 C   0  0  0  0  0  0  0  0  0  0  0  0
  -13.3715   -1.1747    0.0000 C   0  0  0  0  0  0  0  0  0  0  0  0
   -6.1920   -3.2766    0.0000 C   0  0  0  0  0  0  0  0  0  0  0  0
   -6.0353   -1.7848    0.0000 O   0  0  0  0  0  0  0  0  0  0  0  0
   -0.7500    1.2990    0.0000 N   0  0  0  0  0  0  0  0  0  0  0  0
    0.7500    1.2990    0.0000 C   0  0  0  0  0  0  0  0  0  0  0  0
    1.5000    2.5981    0.0000 O   0  0  0  0  0  0  0  0  0  0  0  0
  1  2  1  0
  2  3  2  0
  3  4  1  0
  4  5  2  0
  5  6  1  0
  6  7  1  0
  7  8  2  0
  8  9  1  0
  9 10  2  0
 10 11  1  0
 11 12  1  0
 12 13  1  0
 13 14  1  0
 14 15  1  0
 15 16  2  0
 16 17  1  0
 17 18  2  0
 18 19  1  0
 19 20  2  0
 20 21  1  0
 21 22  2  0
 21 23  1  0
 23 24  1  0
 24 25  2  0
 24 26  1  0
 26 27  2  0
 27 28  1  0
 28 29  2  0
 29 30  1  0
 30 31  1  0
 31 32  2  0
 32 33  1  0
 33 34  2  0
 34 35  1  0
 35 36  2  0
 20 37  1  0
 37 38  2  0
  5 39  1  0
 39 40  1  0
 40 41  2  0
 40  2  1  0
 11  6  1  0
 16 12  1  0
 37 17  1  0
 30 26  1  0
 36 31  1  0
M  END
>  <Title>  (633) 
idAAYIgen8

$$$$

     RDKit          2D

 26 29  0  0  0  0  0  0  0  0999 V2000
    3.0000    0.0000    0.0000 C   0  0  0  0  0  0  0  0  0  0  0  0
    1.5000    0.0000    0.0000 C   0  0  0  0  0  0  0  0  0  0  0  0
    0.7500   -1.2990    0.0000 C   0  0  0  0  0  0  0  0  0  0  0  0
   -0.7500   -1.2990    0.0000 C   0  0  0  0  0  0  0  0  0  0  0  0
   -1.5000    0.0000    0.0000 C   0  0  0  0  0  0  0  0  0  0  0  0
   -3.0000    0.0000    0.0000 C   0  0  0  0  0  0  0  0  0  0  0  0
   -3.8817   -1.2135    0.0000 N   0  0  0  0  0  0  0  0  0  0  0  0
   -5.3083   -0.7500    0.0000 N   0  0  0  0  0  0  0  0  0  0  0  0
   -5.3083    0.7500    0.0000 N   0  0  0  0  0  0  0  0  0  0  0  0
   -3.8817    1.2135    0.0000 N   0  0  0  0  0  0  0  0  0  0  0  0
   -3.4182    2.6401    0.0000 C   0  0  0  0  0  0  0  0  0  0  0  0
   -1.9509    2.9520    0.0000 C   0  0  0  0  0  0  0  0  0  0  0  0
   -1.4874    4.3786    0.0000 C   0  0  0  0  0  0  0  0  0  0  0  0
   -2.4911    5.4933    0.0000 C   0  0  0  0  0  0  0  0  0  0  0  0
   -3.9583    5.1814    0.0000 C   0  0  0  0  0  0  0  0  0  0  0  0
   -4.4218    3.7548    0.0000 C   0  0  0  0  0  0  0  0  0  0  0  0
   -5.8891    3.4430    0.0000 C   0  0  0  0  0  0  0  0  0  0  0  0
   -6.8928    4.5577    0.0000 C   0  0  0  0  0  0  0  0  0  0  0  0
   -8.3600    4.2458    0.0000 C   0  0  0  0  0  0  0  0  0  0  0  0
   -8.8235    2.8192    0.0000 C   0  0  0  0  0  0  0  0  0  0  0  0
  -10.2907    2.5074    0.0000 C   0  0  0  0  0  0  0  0  0  0  0  0
   -7.8198    1.7045    0.0000 C   0  0  0  0  0  0  0  0  0  0  0  0
   -8.2833    0.2779    0.0000 O   0  0  0  0  0  0  0  0  0  0  0  0
   -6.3526    2.0164    0.0000 N   0  0  0  0  0  0  0  0  0  0  0  0
   -0.7500    1.2990    0.0000 N   0  0  0  0  0  0  0  0  0  0  0  0
    0.7500    1.2990    0.0000 N   0  0  0  0  0  0  0  0  0  0  0  0
  1  2  1  0
  2  3  2  0
  3  4  1  0
  4  5  2  0
  5  6  1  0
  6  7  2  0
  7  8  1  0
  8  9  2  0
  9 10  1  0
 10 11  1  0
 11 12  1  0
 12 13  1  0
 13 14  1  0
 14 15  1  0
 15 16  1  0
 16 17  1  0
 17 18  2  0
 18 19  1  0
 19 20  2  0
 20 21  1  0
 20 22  1  0
 22 23  2  0
 22 24  1  0
  5 25  1  0
 25 26  2  0
 26  2  1  0
 10  6  1  0
 16 11  1  0
 24 17  1  0
M  END
>  <Title>  (634) 
idAAYJgen8

$$$$

     RDKit          2D

 26 28  0  0  0  0  0  0  0  0999 V2000
    5.6883   -3.2846    0.0000 C   0  0  0  0  0  0  0  0  0  0  0  0
    5.1403   -1.8883    0.0000 C   0  0  0  0  0  0  0  0  0  0  0  0
    3.6570   -1.6647    0.0000 C   0  0  0  0  0  0  0  0  0  0  0  0
    3.1090   -0.2684    0.0000 C   0  0  0  0  0  0  0  0  0  0  0  0
    4.0442    0.9043    0.0000 C   0  0  0  0  0  0  0  0  0  0  0  0
    3.4962    2.3006    0.0000 N   0  0  0  0  0  0  0  0  0  0  0  0
    4.4315    3.4734    0.0000 N   0  0  0  0  0  0  0  0  0  0  0  0
    3.8835    4.8697    0.0000 N   0  0  0  0  0  0  0  0  0  0  0  0
    2.4002    5.0933    0.0000 N   0  0  0  0  0  0  0  0  0  0  0  0
    1.4650    3.9205    0.0000 N   0  0  0  0  0  0  0  0  0  0  0  0
    2.0130    2.5242    0.0000 N   0  0  0  0  0  0  0  0  0  0  0  0
    1.0777    1.3515    0.0000 C   0  0  0  0  0  0  0  0  0  0  0  0
    1.7286    0.0000    0.0000 C   0  0  0  0  0  0  0  0  0  0  0  0
    1.0777   -1.3515    0.0000 C   0  0  0  0  0  0  0  0  0  0  0  0
   -0.3846   -1.6852    0.0000 C   0  0  0  0  0  0  0  0  0  0  0  0
   -0.7184   -3.1476    0.0000 C   0  0  0  0  0  0  0  0  0  0  0  0
   -2.1518   -3.5898    0.0000 O   0  0  0  0  0  0  0  0  0  0  0  0
    0.3812   -4.1679    0.0000 N   0  0  0  0  0  0  0  0  0  0  0  0
    0.0474   -5.6303    0.0000 O   0  0  0  0  0  0  0  0  0  0  0  0
   -1.5574   -0.7500    0.0000 C   0  0  0  0  0  0  0  0  0  0  0  0
   -2.9088   -1.4008    0.0000 C   0  0  0  0  0  0  0  0  0  0  0  0
   -1.5574    0.7500    0.0000 C   0  0  0  0  0  0  0  0  0  0  0  0
   -0.3846    1.6852    0.0000 C   0  0  0  0  0  0  0  0  0  0  0  0
    5.5275    0.6808    0.0000 C   0  0  0  0  0  0  0  0  0  0  0  0
    6.4627    1.8535    0.0000 O   0  0  0  0  0  0  0  0  0  0  0  0
    6.0755   -0.7155    0.0000 N   0  0  0  0  0  0  0  0  0  0  0  0
  1  2  1  0
  2  3  2  0
  3  4  1  0
  4  5  2  0
  5  6  1  0
  6  7  1  0
  7  8  2  0
  8  9  1  0
  9 10  2  0
 10 11  1  0
 11 12  1  0
 12 13  2  0
 13 14  1  0
 14 15  2  0
 15 16  1  0
 16 17  2  0
 16 18  1  0
 18 19  1  0
 15 20  1  0
 20 21  1  0
 20 22  1  0
 22 23  1  0
  5 24  1  0
 24 25  2  0
 24 26  1  0
 26  2  1  0
 11  6  1  0
 23 12  1  0
M  END
>  <Title>  (635) 
idAAYKgen8

$$$$

     RDKit          2D

 29 29  0  0  0  0  0  0  0  0999 V2000
    8.1986    0.0000    0.0000 C   0  0  0  0  0  0  0  0  0  0  0  0
    6.6986    0.0000    0.0000 C   0  0  0  0  0  0  0  0  0  0  0  0
    6.5306   -1.4906    0.0000 C   0  0  0  0  0  0  0  0  0  0  0  0
    6.0352   -2.9064    0.0000 C   0  0  0  0  0  0  0  0  0  0  0  0
    5.2371   -4.1765    0.0000 C   0  0  0  0  0  0  0  0  0  0  0  0
    4.1765   -5.2371    0.0000 C   0  0  0  0  0  0  0  0  0  0  0  0
    2.9064   -6.0352    0.0000 C   0  0  0  0  0  0  0  0  0  0  0  0
    1.4906   -6.5306    0.0000 C   0  0  0  0  0  0  0  0  0  0  0  0
   -0.0000   -6.6986    0.0000 C   0  0  0  0  0  0  0  0  0  0  0  0
   -1.4906   -6.5306    0.0000 C   0  0  0  0  0  0  0  0  0  0  0  0
   -2.9064   -6.0352    0.0000 C   0  0  0  0  0  0  0  0  0  0  0  0
   -4.1765   -5.2371    0.0000 C   0  0  0  0  0  0  0  0  0  0  0  0
   -5.2371   -4.1765    0.0000 C   0  0  0  0  0  0  0  0  0  0  0  0
   -6.0352   -2.9064    0.0000 C   0  0  0  0  0  0  0  0  0  0  0  0
   -6.5306   -1.4906    0.0000 C   0  0  0  0  0  0  0  0  0  0  0  0
   -6.6986    0.0000    0.0000 C   0  0  0  0  0  0  0  0  0  0  0  0
   -6.5306    1.4906    0.0000 C   0  0  0  0  0  0  0  0  0  0  0  0
   -6.0352    2.9064    0.0000 C   0  0  0  0  0  0  0  0  0  0  0  0
   -5.2371    4.1765    0.0000 C   0  0  0  0  0  0  0  0  0  0  0  0
   -4.1765    5.2371    0.0000 C   0  0  0  0  0  0  0  0  0  0  0  0
   -2.9064    6.0352    0.0000 C   0  0  0  0  0  0  0  0  0  0  0  0
   -1.4906    6.5306    0.0000 C   0  0  0  0  0  0  0  0  0  0  0  0
    0.0000    6.6986    0.0000 C   0  0  0  0  0  0  0  0  0  0  0  0
    1.4906    6.5306    0.0000 C   0  0  0  0  0  0  0  0  0  0  0  0
    2.9064    6.0352    0.0000 C   0  0  0  0  0  0  0  0  0  0  0  0
    4.1765    5.2371    0.0000 C   0  0  0  0  0  0  0  0  0  0  0  0
    5.2371    4.1765    0.0000 C   0  0  0  0  0  0  0  0  0  0  0  0
    6.0352    2.9064    0.0000 C   0  0  0  0  0  0  0  0  0  0  0  0
    6.5306    1.4906    0.0000 C   0  0  0  0  0  0  0  0  0  0  0  0
  1  2  1  0
  2  3  2  0
  3  4  1  0
  4  5  2  0
  5  6  1  0
  6  7  2  0
  7  8  1  0
  8  9  2  0
  9 10  1  0
 10 11  2  0
 11 12  1  0
 12 13  2  0
 13 14  1  0
 14 15  2  0
 15 16  1  0
 16 17  2  0
 17 18  1  0
 18 19  2  0
 19 20  1  0
 20 21  2  0
 21 22  1  0
 22 23  2  0
 23 24  1  0
 24 25  2  0
 25 26  1  0
 26 27  2  0
 27 28  1  0
 28 29  2  0
 29  2  1  0
M  END
>  <Title>  (636) 
idAAYLgen8

$$$$

     RDKit          2D

 23 25  0  0  0  0  0  0  0  0999 V2000
    3.2286   -0.0000    0.0000 C   0  0  0  0  0  0  0  0  0  0  0  0
    1.7286    0.0000    0.0000 C   0  0  0  0  0  0  0  0  0  0  0  0
    1.0777    1.3515    0.0000 C   0  0  0  0  0  0  0  0  0  0  0  0
   -0.3846    1.6852    0.0000 C   0  0  0  0  0  0  0  0  0  0  0  0
   -1.5574    0.7500    0.0000 C   0  0  0  0  0  0  0  0  0  0  0  0
   -1.5574   -0.7500    0.0000 C   0  0  0  0  0  0  0  0  0  0  0  0
   -0.3846   -1.6852    0.0000 C   0  0  0  0  0  0  0  0  0  0  0  0
    1.0777   -1.3515    0.0000 C   0  0  0  0  0  0  0  0  0  0  0  0
    2.0130   -2.5242    0.0000 C   0  0  0  0  0  0  0  0  0  0  0  0
    1.4650   -3.9205    0.0000 C   0  0  0  0  0  0  0  0  0  0  0  0
    2.4002   -5.0933    0.0000 O   0  0  0  0  0  0  0  0  0  0  0  0
    3.4962   -2.3006    0.0000 N   0  0  0  0  0  0  0  0  0  0  0  0
    4.4315   -3.4734    0.0000 C   0  0  0  0  0  0  0  0  0  0  0  0
    3.8835   -4.8697    0.0000 C   0  0  0  0  0  0  0  0  0  0  0  0
    4.8187   -6.0424    0.0000 C   0  0  0  0  0  0  0  0  0  0  0  0
    6.3019   -5.8189    0.0000 C   0  0  0  0  0  0  0  0  0  0  0  0
    7.2372   -6.9916    0.0000 C   0  0  0  0  0  0  0  0  0  0  0  0
    8.7357   -6.9243    0.0000 N   0  0  0  0  0  0  0  0  0  0  0  0
    9.2627   -8.3287    0.0000 N   0  0  0  0  0  0  0  0  0  0  0  0
    8.0900   -9.2639    0.0000 N   0  0  0  0  0  0  0  0  0  0  0  0
    6.8381   -8.4376    0.0000 N   0  0  0  0  0  0  0  0  0  0  0  0
    6.8499   -4.4226    0.0000 C   0  0  0  0  0  0  0  0  0  0  0  0
    5.9147   -3.2498    0.0000 C   0  0  0  0  0  0  0  0  0  0  0  0
  1  2  1  0
  2  3  2  0
  3  4  1  0
  4  5  2  0
  5  6  1  0
  6  7  1  0
  7  8  1  0
  8  9  1  0
  9 10  1  0
 10 11  1  0
  9 12  1  0
 12 13  1  0
 13 14  2  0
 14 15  1  0
 15 16  2  0
 16 17  1  0
 17 18  2  0
 18 19  1  0
 19 20  2  0
 20 21  1  0
 16 22  1  0
 22 23  2  0
  8  2  1  0
 23 13  1  0
 21 17  1  0
M  END
>  <Title>  (637) 
idAAYMgen8

$$$$

     RDKit          2D

 57 65  0  0  0  0  0  0  0  0999 V2000
  -11.7052   -6.9027    0.0000 C   0  0  0  0  0  0  0  0  0  0  0  0
  -10.2112   -7.0371    0.0000 C   0  0  0  0  0  0  0  0  0  0  0  0
   -9.4419   -5.7494    0.0000 C   0  0  0  0  0  0  0  0  0  0  0  0
   -7.9554   -5.5481    0.0000 C   0  0  0  0  0  0  0  0  0  0  0  0
   -6.8712   -6.5847    0.0000 C   0  0  0  0  0  0  0  0  0  0  0  0
   -5.4669   -6.0576    0.0000 C   0  0  0  0  0  0  0  0  0  0  0  0
   -4.2150   -6.8840    0.0000 N   0  0  0  0  0  0  0  0  0  0  0  0
   -3.0423   -5.9487    0.0000 N   0  0  0  0  0  0  0  0  0  0  0  0
   -3.5694   -4.5444    0.0000 N   0  0  0  0  0  0  0  0  0  0  0  0
   -5.0678   -4.6117    0.0000 N   0  0  0  0  0  0  0  0  0  0  0  0
   -6.0031   -3.4389    0.0000 C   0  0  0  0  0  0  0  0  0  0  0  0
   -7.4863   -3.6625    0.0000 C   0  0  0  0  0  0  0  0  0  0  0  0
   -8.4216   -2.4897    0.0000 C   0  0  0  0  0  0  0  0  0  0  0  0
   -7.8735   -1.0934    0.0000 C   0  0  0  0  0  0  0  0  0  0  0  0
   -6.3903   -0.8699    0.0000 C   0  0  0  0  0  0  0  0  0  0  0  0
   -5.4551   -2.0426    0.0000 C   0  0  0  0  0  0  0  0  0  0  0  0
   -3.9718   -1.8191    0.0000 C   0  0  0  0  0  0  0  0  0  0  0  0
   -3.0366   -2.9918    0.0000 C   0  0  0  0  0  0  0  0  0  0  0  0
   -1.5533   -2.7682    0.0000 C   0  0  0  0  0  0  0  0  0  0  0  0
   -1.0053   -1.3719    0.0000 C   0  0  0  0  0  0  0  0  0  0  0  0
    0.4779   -1.1484    0.0000 C   0  0  0  0  0  0  0  0  0  0  0  0
    1.1689    0.1830    0.0000 N   0  0  0  0  0  0  0  0  0  0  0  0
    2.6486   -0.0627    0.0000 N   0  0  0  0  0  0  0  0  0  0  0  0
    2.8722   -1.5460    0.0000 N   0  0  0  0  0  0  0  0  0  0  0  0
    1.5306   -2.2169    0.0000 N   0  0  0  0  0  0  0  0  0  0  0  0
    1.2849   -3.6967    0.0000 C   0  0  0  0  0  0  0  0  0  0  0  0
   -0.1195   -4.2237    0.0000 C   0  0  0  0  0  0  0  0  0  0  0  0
   -0.3652   -5.7035    0.0000 C   0  0  0  0  0  0  0  0  0  0  0  0
    0.7934   -6.6561    0.0000 C   0  0  0  0  0  0  0  0  0  0  0  0
    2.1978   -6.1291    0.0000 C   0  0  0  0  0  0  0  0  0  0  0  0
    2.4435   -4.6493    0.0000 C   0  0  0  0  0  0  0  0  0  0  0  0
   -1.9406   -0.1992    0.0000 C   0  0  0  0  0  0  0  0  0  0  0  0
   -3.4238   -0.4227    0.0000 C   0  0  0  0  0  0  0  0  0  0  0  0
   -4.3590    0.7500    0.0000 N   0  0  0  0  0  0  0  0  0  0  0  0
   -5.8214    0.4162    0.0000 C   0  0  0  0  0  0  0  0  0  0  0  0
   -6.9942    1.3515    0.0000 C   0  0  0  0  0  0  0  0  0  0  0  0
   -6.9942    2.8515    0.0000 C   0  0  0  0  0  0  0  0  0  0  0  0
   -5.8214    3.7867    0.0000 C   0  0  0  0  0  0  0  0  0  0  0  0
   -4.3590    3.4529    0.0000 C   0  0  0  0  0  0  0  0  0  0  0  0
   -3.7082    2.1015    0.0000 C   0  0  0  0  0  0  0  0  0  0  0  0
   -2.2082    2.1015    0.0000 C   0  0  0  0  0  0  0  0  0  0  0  0
   -1.5574    0.7500    0.0000 C   0  0  0  0  0  0  0  0  0  0  0  0
   -0.0950    0.4162    0.0000 C   0  0  0  0  0  0  0  0  0  0  0  0
    1.0777    1.3515    0.0000 C   0  0  0  0  0  0  0  0  0  0  0  0
    2.5465    1.0470    0.0000 C   0  0  0  0  0  0  0  0  0  0  0  0
    1.0777    2.8515    0.0000 C   0  0  0  0  0  0  0  0  0  0  0  0
    1.7286    4.2029    0.0000 C   0  0  0  0  0  0  0  0  0  0  0  0
    1.0777    5.5544    0.0000 C   0  0  0  0  0  0  0  0  0  0  0  0
   -0.3846    5.8881    0.0000 C   0  0  0  0  0  0  0  0  0  0  0  0
   -1.5574    4.9529    0.0000 C   0  0  0  0  0  0  0  0  0  0  0  0
   -1.5574    3.4529    0.0000 C   0  0  0  0  0  0  0  0  0  0  0  0
   -0.3846    2.5177    0.0000 C   0  0  0  0  0  0  0  0  0  0  0  0
   -0.7184    1.0553    0.0000 O   0  0  0  0  0  0  0  0  0  0  0  0
   -7.0057   -8.0786    0.0000 N   0  0  0  0  0  0  0  0  0  0  0  0
   -8.2576   -8.9050    0.0000 C   0  0  0  0  0  0  0  0  0  0  0  0
   -8.0562  -10.3914    0.0000 O   0  0  0  0  0  0  0  0  0  0  0  0
   -9.6842   -8.4415    0.0000 N   0  0  0  0  0  0  0  0  0  0  0  0
  1  2  1  0
  2  3  2  0
  3  4  1  0
  4  5  2  0
  5  6  1  0
  6  7  2  0
  7  8  1  0
  8  9  2  0
  9 10  1  0
 10 11  1  0
 11 12  2  0
 12 13  1  0
 13 14  2  0
 14 15  1  0
 15 16  2  0
 16 17  1  0
 17 18  2  0
 18 19  1  0
 19 20  2  0
 20 21  1  0
 21 22  2  0
 22 23  1  0
 23 24  2  0
 24 25  1  0
 25 26  1  0
 26 27  2  0
 27 28  1  0
 28 29  2  0
 29 30  1  0
 30 31  2  0
 20 32  1  0
 32 33  2  0
 33 34  1  0
 34 35  1  0
 35 36  2  0
 36 37  1  0
 37 38  2  0
 38 39  1  0
 39 40  2  0
 40 41  1  0
 41 42  2  0
 42 43  1  0
 43 44  2  0
 44 45  1  0
 44 46  1  0
 46 47  2  0
 47 48  1  0
 48 49  2  0
 49 50  1  0
 50 51  2  0
 51 52  1  0
 52 53  2  0
  5 54  1  0
 54 55  1  0
 55 56  2  0
 55 57  1  0
 57  2  1  0
 10  6  1  0
 16 11  1  0
 33 17  1  0
 40 34  1  0
 51 41  1  0
 25 21  1  0
 31 26  1  0
 52 46  1  0
M  END
>  <Title>  (638) 
idAAYNgen8

$$$$

     RDKit          2D

 10 10  0  0  0  0  0  0  0  0999 V2000
    3.4598   -0.0000    0.0000 C   0  0  0  0  0  0  0  0  0  0  0  0
    1.9598    0.0000    0.0000 C   0  0  0  0  0  0  0  0  0  0  0  0
    1.3858   -1.3858    0.0000 C   0  0  0  0  0  0  0  0  0  0  0  0
   -0.0000   -1.9598    0.0000 C   0  0  0  0  0  0  0  0  0  0  0  0
   -1.3858   -1.3858    0.0000 C   0  0  0  0  0  0  0  0  0  0  0  0
   -1.9598    0.0000    0.0000 C   0  0  0  0  0  0  0  0  0  0  0  0
   -1.3858    1.3858    0.0000 C   0  0  0  0  0  0  0  0  0  0  0  0
   -2.4465    2.4465    0.0000 O   0  0  0  0  0  0  0  0  0  0  0  0
    0.0000    1.9598    0.0000 C   0  0  0  0  0  0  0  0  0  0  0  0
    1.3858    1.3858    0.0000 C   0  0  0  0  0  0  0  0  0  0  0  0
  1  2  1  0
  2  3  2  0
  3  4  1  0
  4  5  2  0
  5  6  1  0
  6  7  2  0
  7  8  1  0
  7  9  1  0
  9 10  1  0
 10  2  1  0
M  END
>  <Title>  (639) 
idAAYOgen8

$$$$

     RDKit          2D

 54 61  0  0  0  0  0  0  0  0999 V2000
    5.7154   12.6459    0.0000 C   0  0  0  0  0  0  0  0  0  0  0  0
    6.5324   11.3879    0.0000 O   0  0  0  0  0  0  0  0  0  0  0  0
    5.8514   10.0514    0.0000 C   0  0  0  0  0  0  0  0  0  0  0  0
    6.6684    8.7934    0.0000 C   0  0  0  0  0  0  0  0  0  0  0  0
    5.9874    7.4569    0.0000 C   0  0  0  0  0  0  0  0  0  0  0  0
    4.4894    7.3784    0.0000 C   0  0  0  0  0  0  0  0  0  0  0  0
    3.8085    6.0419    0.0000 C   0  0  0  0  0  0  0  0  0  0  0  0
    2.3269    5.8072    0.0000 N   0  0  0  0  0  0  0  0  0  0  0  0
    2.0923    4.3257    0.0000 N   0  0  0  0  0  0  0  0  0  0  0  0
    3.4288    3.6447    0.0000 N   0  0  0  0  0  0  0  0  0  0  0  0
    4.4894    4.7054    0.0000 N   0  0  0  0  0  0  0  0  0  0  0  0
    5.9710    4.4707    0.0000 C   0  0  0  0  0  0  0  0  0  0  0  0
    7.0316    5.5314    0.0000 C   0  0  0  0  0  0  0  0  0  0  0  0
    8.3681    4.8504    0.0000 N   0  0  0  0  0  0  0  0  0  0  0  0
    8.1335    3.3689    0.0000 N   0  0  0  0  0  0  0  0  0  0  0  0
    6.6520    3.1342    0.0000 N   0  0  0  0  0  0  0  0  0  0  0  0
    5.9710    1.7977    0.0000 C   0  0  0  0  0  0  0  0  0  0  0  0
    4.4730    1.7192    0.0000 C   0  0  0  0  0  0  0  0  0  0  0  0
    3.7920    0.3827    0.0000 C   0  0  0  0  0  0  0  0  0  0  0  0
    4.6090   -0.8753    0.0000 C   0  0  0  0  0  0  0  0  0  0  0  0
    3.9280   -2.2118    0.0000 C   0  0  0  0  0  0  0  0  0  0  0  0
    4.6090   -3.5483    0.0000 N   0  0  0  0  0  0  0  0  0  0  0  0
    3.5483   -4.6090    0.0000 N   0  0  0  0  0  0  0  0  0  0  0  0
    2.2118   -3.9280    0.0000 N   0  0  0  0  0  0  0  0  0  0  0  0
    2.4465   -2.4465    0.0000 N   0  0  0  0  0  0  0  0  0  0  0  0
    1.3858   -1.3858    0.0000 C   0  0  0  0  0  0  0  0  0  0  0  0
    1.9598    0.0000    0.0000 N   0  0  0  0  0  0  0  0  0  0  0  0
    1.3858    1.3858    0.0000 C   0  0  0  0  0  0  0  0  0  0  0  0
    0.0000    1.9598    0.0000 N   0  0  0  0  0  0  0  0  0  0  0  0
   -1.3858    1.3858    0.0000 N   0  0  0  0  0  0  0  0  0  0  0  0
   -1.9598    0.0000    0.0000 N   0  0  0  0  0  0  0  0  0  0  0  0
   -1.3858   -1.3858    0.0000 N   0  0  0  0  0  0  0  0  0  0  0  0
   -0.0000   -1.9598    0.0000 N   0  0  0  0  0  0  0  0  0  0  0  0
   -0.0000   -3.4598    0.0000 C   0  0  0  0  0  0  0  0  0  0  0  0
   -1.2990   -4.2098    0.0000 C   0  0  0  0  0  0  0  0  0  0  0  0
   -1.2990   -5.7098    0.0000 C   0  0  0  0  0  0  0  0  0  0  0  0
   -0.0000   -6.4598    0.0000 C   0  0  0  0  0  0  0  0  0  0  0  0
    1.2990   -5.7098    0.0000 C   0  0  0  0  0  0  0  0  0  0  0  0
    1.2990   -4.2098    0.0000 C   0  0  0  0  0  0  0  0  0  0  0  0
    6.1069   -0.7968    0.0000 C   0  0  0  0  0  0  0  0  0  0  0  0
    6.7879    0.5397    0.0000 C   0  0  0  0  0  0  0  0  0  0  0  0
    8.2859    0.6182    0.0000 C   0  0  0  0  0  0  0  0  0  0  0  0
    9.1028   -0.6398    0.0000 C   0  0  0  0  0  0  0  0  0  0  0  0
   10.6008   -0.5613    0.0000 C   0  0  0  0  0  0  0  0  0  0  0  0
   11.2818    0.7752    0.0000 C   0  0  0  0  0  0  0  0  0  0  0  0
   12.7797    0.8537    0.0000 C   0  0  0  0  0  0  0  0  0  0  0  0
   13.4607    2.1902    0.0000 O   0  0  0  0  0  0  0  0  0  0  0  0
   13.5967   -0.4043    0.0000 N   0  0  0  0  0  0  0  0  0  0  0  0
   15.0946   -0.3258    0.0000 O   0  0  0  0  0  0  0  0  0  0  0  0
   10.4648    2.0332    0.0000 C   0  0  0  0  0  0  0  0  0  0  0  0
    8.9669    1.9547    0.0000 C   0  0  0  0  0  0  0  0  0  0  0  0
    3.6725    8.6364    0.0000 C   0  0  0  0  0  0  0  0  0  0  0  0
    2.1745    8.5579    0.0000 O   0  0  0  0  0  0  0  0  0  0  0  0
    4.3535    9.9729    0.0000 N   0  0  0  0  0  0  0  0  0  0  0  0
  1  2  1  0
  2  3  1  0
  3  4  2  0
  4  5  1  0
  5  6  2  0
  6  7  1  0
  7  8  2  0
  8  9  1  0
  9 10  2  0
 10 11  1  0
 11 12  1  0
 12 13  2  0
 13 14  1  0
 14 15  2  0
 15 16  1  0
 16 17  1  0
 17 18  2  0
 18 19  1  0
 19 20  2  0
 20 21  1  0
 21 22  2  0
 22 23  1  0
 23 24  2  0
 24 25  1  0
 25 26  1  0
 26 27  1  0
 27 28  1  0
 28 29  1  0
 29 30  2  0
 30 31  1  0
 31 32  2  0
 32 33  1  0
 33 34  1  0
 34 35  2  0
 35 36  1  0
 36 37  2  0
 37 38  1  0
 38 39  2  0
 20 40  1  0
 40 41  2  0
 41 42  1  0
 42 43  2  0
 43 44  1  0
 44 45  2  0
 45 46  1  0
 46 47  2  0
 46 48  1  0
 48 49  1  0
 45 50  1  0
 50 51  1  0
  6 52  1  0
 52 53  2  0
 52 54  1  0
 54  3  1  0
 11  7  1  0
 16 12  1  0
 41 17  1  0
 51 42  1  0
 25 21  1  0
 33 26  1  0
 39 34  1  0
M  END
>  <Title>  (640) 
idAAYPgen8

$$$$

     RDKit          2D

 50 57  0  0  0  0  0  0  0  0999 V2000
   -9.8222  -11.9554    0.0000 C   0  0  0  0  0  0  0  0  0  0  0  0
   -9.1815  -10.5991    0.0000 C   0  0  0  0  0  0  0  0  0  0  0  0
  -10.1893   -9.4881    0.0000 C   0  0  0  0  0  0  0  0  0  0  0  0
  -10.1164   -7.9899    0.0000 C   0  0  0  0  0  0  0  0  0  0  0  0
   -9.0055   -6.9820    0.0000 C   0  0  0  0  0  0  0  0  0  0  0  0
   -7.5073   -7.0549    0.0000 C   0  0  0  0  0  0  0  0  0  0  0  0
   -6.4994   -8.1659    0.0000 C   0  0  0  0  0  0  0  0  0  0  0  0
   -5.0873   -7.6599    0.0000 N   0  0  0  0  0  0  0  0  0  0  0  0
   -3.9431   -8.6298    0.0000 N   0  0  0  0  0  0  0  0  0  0  0  0
   -2.5310   -8.1238    0.0000 N   0  0  0  0  0  0  0  0  0  0  0  0
   -2.2632   -6.6479    0.0000 N   0  0  0  0  0  0  0  0  0  0  0  0
   -3.4074   -5.6780    0.0000 N   0  0  0  0  0  0  0  0  0  0  0  0
   -4.8195   -6.1840    0.0000 N   0  0  0  0  0  0  0  0  0  0  0  0
   -5.9637   -5.2141    0.0000 C   0  0  0  0  0  0  0  0  0  0  0  0
   -7.3758   -5.7201    0.0000 C   0  0  0  0  0  0  0  0  0  0  0  0
   -8.5200   -4.7502    0.0000 C   0  0  0  0  0  0  0  0  0  0  0  0
   -8.2522   -3.2743    0.0000 C   0  0  0  0  0  0  0  0  0  0  0  0
   -7.0387   -4.1560    0.0000 C   0  0  0  0  0  0  0  0  0  0  0  0
   -5.5927   -3.7569    0.0000 C   0  0  0  0  0  0  0  0  0  0  0  0
   -5.0032   -2.3776    0.0000 C   0  0  0  0  0  0  0  0  0  0  0  0
   -3.5047   -2.3103    0.0000 O   0  0  0  0  0  0  0  0  0  0  0  0
   -5.7140   -1.0567    0.0000 C   0  0  0  0  0  0  0  0  0  0  0  0
   -4.8323    0.1568    0.0000 C   0  0  0  0  0  0  0  0  0  0  0  0
   -3.3405    0.0000    0.0000 C   0  0  0  0  0  0  0  0  0  0  0  0
   -2.4589    1.2135    0.0000 C   0  0  0  0  0  0  0  0  0  0  0  0
   -3.3405    2.4271    0.0000 C   0  0  0  0  0  0  0  0  0  0  0  0
   -3.3405    3.9271    0.0000 C   0  0  0  0  0  0  0  0  0  0  0  0
   -2.4589    5.1406    0.0000 C   0  0  0  0  0  0  0  0  0  0  0  0
   -1.0323    5.6041    0.0000 C   0  0  0  0  0  0  0  0  0  0  0  0
    0.3943    5.1406    0.0000 C   0  0  0  0  0  0  0  0  0  0  0  0
    1.2760    3.9271    0.0000 C   0  0  0  0  0  0  0  0  0  0  0  0
    1.2760    2.4271    0.0000 C   0  0  0  0  0  0  0  0  0  0  0  0
    1.2760    0.9271    0.0000 C   0  0  0  0  0  0  0  0  0  0  0  0
    0.3943   -0.2865    0.0000 C   0  0  0  0  0  0  0  0  0  0  0  0
   -1.0323   -0.7500    0.0000 C   0  0  0  0  0  0  0  0  0  0  0  0
   -2.4589   -0.2865    0.0000 C   0  0  0  0  0  0  0  0  0  0  0  0
   -3.3405    0.9271    0.0000 C   0  0  0  0  0  0  0  0  0  0  0  0
    0.3943    1.2135    0.0000 N   0  0  0  0  0  0  0  0  0  0  0  0
   -0.0880    1.4842    0.0000 N   0  0  0  0  0  0  0  0  0  0  0  0
   -0.2546    0.7837    0.0000 N   0  0  0  0  0  0  0  0  0  0  0  0
   -0.8013    1.2525    0.0000 N   0  0  0  0  0  0  0  0  0  0  0  0
   -1.0323    0.7500    0.0000 C   0  0  0  0  0  0  0  0  0  0  0  0
   -7.1899   -0.7889    0.0000 N   0  0  0  0  0  0  0  0  0  0  0  0
   -7.7794    0.5904    0.0000 N   0  0  0  0  0  0  0  0  0  0  0  0
   -9.2734    0.4559    0.0000 N   0  0  0  0  0  0  0  0  0  0  0  0
   -9.6072   -1.0065    0.0000 N   0  0  0  0  0  0  0  0  0  0  0  0
   -8.3195   -1.7758    0.0000 C   0  0  0  0  0  0  0  0  0  0  0  0
   -6.5723   -9.6641    0.0000 N   0  0  0  0  0  0  0  0  0  0  0  0
   -7.6833  -10.6720    0.0000 C   0  0  0  0  0  0  0  0  0  0  0  0
   -7.1773  -12.0840    0.0000 O   0  0  0  0  0  0  0  0  0  0  0  0
  1  2  1  0
  2  3  2  0
  3  4  1  0
  4  5  2  0
  5  6  1  0
  6  7  2  0
  7  8  1  0
  8  9  1  0
  9 10  2  0
 10 11  1  0
 11 12  2  0
 12 13  1  0
 13 14  1  0
 14 15  2  0
 15 16  1  0
 16 17  2  0
 17 18  1  0
 18 19  2  0
 19 20  1  0
 20 21  2  0
 20 22  1  0
 22 23  2  3
 23 24  1  0
 24 25  2  3
 25 26  1  0
 26 27  2  0
 27 28  1  0
 28 29  2  0
 29 30  1  0
 30 31  2  0
 31 32  1  0
 32 33  2  0
 33 34  1  0
 34 35  2  0
 35 36  1  0
 36 37  2  0
 32 38  1  0
 38 39  1  0
 39 40  2  0
 40 41  1  0
 41 42  2  0
 22 43  1  0
 43 44  1  0
 44 45  2  0
 45 46  1  0
 46 47  2  0
  7 48  1  0
 48 49  1  0
 49 50  2  0
 49  2  1  0
 13  8  1  0
 19 14  1  0
 42 25  1  0
 47 43  1  0
 47 17  1  0
 37 26  1  0
 42 38  1  0
M  END
>  <Title>  (641) 
idAAYQgen8

$$$$

     RDKit          2D

 40 45  0  0  0  0  0  0  0  0999 V2000
   -4.1679   -3.2376    0.0000 C   0  0  0  0  0  0  0  0  0  0  0  0
   -3.1476   -2.1380    0.0000 O   0  0  0  0  0  0  0  0  0  0  0  0
   -1.6852   -2.4718    0.0000 C   0  0  0  0  0  0  0  0  0  0  0  0
   -0.7500   -1.2990    0.0000 C   0  0  0  0  0  0  0  0  0  0  0  0
    0.7500   -1.2990    0.0000 C   0  0  0  0  0  0  0  0  0  0  0  0
    1.6852   -2.4718    0.0000 C   0  0  0  0  0  0  0  0  0  0  0  0
    3.1476   -2.1380    0.0000 N   0  0  0  0  0  0  0  0  0  0  0  0
    4.1679   -3.2376    0.0000 C   0  0  0  0  0  0  0  0  0  0  0  0
    5.6303   -2.9038    0.0000 C   0  0  0  0  0  0  0  0  0  0  0  0
    6.0724   -1.4704    0.0000 N   0  0  0  0  0  0  0  0  0  0  0  0
    5.0522   -0.3709    0.0000 N   0  0  0  0  0  0  0  0  0  0  0  0
    3.5898   -0.7046    0.0000 N   0  0  0  0  0  0  0  0  0  0  0  0
    2.5695    0.3949    0.0000 C   0  0  0  0  0  0  0  0  0  0  0  0
    1.0802    0.2158    0.0000 C   0  0  0  0  0  0  0  0  0  0  0  0
    0.4497    1.5769    0.0000 C   0  0  0  0  0  0  0  0  0  0  0  0
    1.5493    2.5971    0.0000 C   0  0  0  0  0  0  0  0  0  0  0  0
    1.3702    4.0864    0.0000 C   0  0  0  0  0  0  0  0  0  0  0  0
   -0.0493    4.5712    0.0000 C   0  0  0  0  0  0  0  0  0  0  0  0
   -0.5553    5.9833    0.0000 C   0  0  0  0  0  0  0  0  0  0  0  0
    0.2332    7.2593    0.0000 C   0  0  0  0  0  0  0  0  0  0  0  0
   -0.5743    8.5234    0.0000 C   0  0  0  0  0  0  0  0  0  0  0  0
    0.1167    9.8548    0.0000 C   0  0  0  0  0  0  0  0  0  0  0  0
   -0.6909   11.1189    0.0000 C   0  0  0  0  0  0  0  0  0  0  0  0
   -2.1894   11.0516    0.0000 C   0  0  0  0  0  0  0  0  0  0  0  0
   -2.8803    9.7202    0.0000 C   0  0  0  0  0  0  0  0  0  0  0  0
   -2.0728    8.4561    0.0000 C   0  0  0  0  0  0  0  0  0  0  0  0
    1.7225    7.4384    0.0000 C   0  0  0  0  0  0  0  0  0  0  0  0
    2.7911    6.3857    0.0000 N   0  0  0  0  0  0  0  0  0  0  0  0
    2.6343    4.8939    0.0000 C   0  0  0  0  0  0  0  0  0  0  0  0
    3.9103    4.1054    0.0000 O   0  0  0  0  0  0  0  0  0  0  0  0
    2.8594    1.8667    0.0000 C   0  0  0  0  0  0  0  0  0  0  0  0
    4.2204    2.4972    0.0000 O   0  0  0  0  0  0  0  0  0  0  0  0
    1.3515   -3.9342    0.0000 N   0  0  0  0  0  0  0  0  0  0  0  0
    2.5908   -4.7792    0.0000 N   0  0  0  0  0  0  0  0  0  0  0  0
    2.4787   -6.2750    0.0000 N   0  0  0  0  0  0  0  0  0  0  0  0
    1.1273   -6.9258    0.0000 N   0  0  0  0  0  0  0  0  0  0  0  0
   -0.1121   -6.0808    0.0000 N   0  0  0  0  0  0  0  0  0  0  0  0
    0.0000   -4.5850    0.0000 N   0  0  0  0  0  0  0  0  0  0  0  0
   -1.3515   -3.9342    0.0000 C   0  0  0  0  0  0  0  0  0  0  0  0
   -2.5242   -4.8694    0.0000 O   0  0  0  0  0  0  0  0  0  0  0  0
  1  2  1  0
  2  3  1  0
  3  4  2  0
  4  5  1  0
  5  6  2  0
  6  7  1  0
  7  8  1  0
  8  9  2  0
  9 10  1  0
 10 11  2  0
 11 12  1  0
 12 13  1  0
 13 14  2  0
 14 15  1  0
 15 16  2  0
 16 17  1  0
 17 18  2  0
 18 19  1  0
 19 20  2  0
 20 21  1  0
 21 22  2  0
 22 23  1  0
 23 24  2  0
 24 25  1  0
 25 26  2  0
 20 27  1  0
 27 28  2  0
 28 29  1  0
 29 30  2  0
 16 31  1  0
 31 32  2  0
  6 33  1  0
 33 34  1  0
 34 35  2  0
 35 36  1  0
 36 37  2  0
 37 38  1  0
 38 39  1  0
 39 40  2  0
 39  3  1  0
 12  7  1  0
 31 13  1  0
 38 33  1  0
 29 17  1  0
 26 21  1  0
M  END
>  <Title>  (642) 
idAAYRgen8

$$$$

     RDKit          2D

 21 22  0  0  0  0  0  0  0  0999 V2000
   -2.7145    1.5981    0.0000 O   0  0  0  0  0  0  0  0  0  0  0  0
   -1.5848    2.5850    0.0000 C   0  0  0  0  0  0  0  0  0  0  0  0
   -2.3153    3.8951    0.0000 C   0  0  0  0  0  0  0  0  0  0  0  0
   -2.4498    5.3890    0.0000 C   0  0  0  0  0  0  0  0  0  0  0  0
   -1.9650    6.8085    0.0000 C   0  0  0  0  0  0  0  0  0  0  0  0
   -0.9447    7.9081    0.0000 C   0  0  0  0  0  0  0  0  0  0  0  0
    0.4346    8.4976    0.0000 C   0  0  0  0  0  0  0  0  0  0  0  0
    1.9344    8.4752    0.0000 C   0  0  0  0  0  0  0  0  0  0  0  0
    3.2954    7.8447    0.0000 C   0  0  0  0  0  0  0  0  0  0  0  0
    4.2824    6.7151    0.0000 C   0  0  0  0  0  0  0  0  0  0  0  0
    4.7245    5.2817    0.0000 C   0  0  0  0  0  0  0  0  0  0  0  0
    4.5454    3.7924    0.0000 C   0  0  0  0  0  0  0  0  0  0  0  0
    3.7760    2.5048    0.0000 C   0  0  0  0  0  0  0  0  0  0  0  0
    2.5495    1.6413    0.0000 C   0  0  0  0  0  0  0  0  0  0  0  0
    1.0777    1.3515    0.0000 C   0  0  0  0  0  0  0  0  0  0  0  0
    1.7286    0.0000    0.0000 O   0  0  0  0  0  0  0  0  0  0  0  0
    1.0777   -1.3515    0.0000 C   0  0  0  0  0  0  0  0  0  0  0  0
   -0.3846   -1.6852    0.0000 C   0  0  0  0  0  0  0  0  0  0  0  0
   -1.5574   -0.7500    0.0000 C   0  0  0  0  0  0  0  0  0  0  0  0
   -1.5574    0.7500    0.0000 C   0  0  0  0  0  0  0  0  0  0  0  0
   -0.3846    1.6852    0.0000 C   0  0  0  0  0  0  0  0  0  0  0  0
  1  2  1  0
  2  3  2  0
  3  4  1  0
  4  5  2  0
  5  6  1  0
  6  7  2  0
  7  8  1  0
  8  9  2  0
  9 10  1  0
 10 11  2  0
 11 12  1  0
 12 13  2  0
 13 14  1  0
 14 15  2  0
 15 16  1  0
 16 17  1  0
 17 18  1  0
 18 19  2  0
 19 20  1  0
 20 21  2  0
 21  2  1  0
 21 15  1  0
M  END
>  <Title>  (643) 
idAAYSgen8

$$$$

     RDKit          2D

 36 40  0  0  0  0  0  0  0  0999 V2000
    3.0000    0.0000    0.0000 C   0  0  0  0  0  0  0  0  0  0  0  0
    1.5000    0.0000    0.0000 C   0  0  0  0  0  0  0  0  0  0  0  0
    0.7500    1.2990    0.0000 C   0  0  0  0  0  0  0  0  0  0  0  0
   -0.7500    1.2990    0.0000 C   0  0  0  0  0  0  0  0  0  0  0  0
   -1.5000    0.0000    0.0000 C   0  0  0  0  0  0  0  0  0  0  0  0
   -3.0000    0.0000    0.0000 C   0  0  0  0  0  0  0  0  0  0  0  0
   -3.8817   -1.2135    0.0000 N   0  0  0  0  0  0  0  0  0  0  0  0
   -5.3083   -0.7500    0.0000 N   0  0  0  0  0  0  0  0  0  0  0  0
   -5.3083    0.7500    0.0000 N   0  0  0  0  0  0  0  0  0  0  0  0
   -3.8817    1.2135    0.0000 N   0  0  0  0  0  0  0  0  0  0  0  0
   -3.4182    2.6401    0.0000 C   0  0  0  0  0  0  0  0  0  0  0  0
   -1.9509    2.9520    0.0000 C   0  0  0  0  0  0  0  0  0  0  0  0
   -1.4874    4.3786    0.0000 C   0  0  0  0  0  0  0  0  0  0  0  0
   -2.4911    5.4933    0.0000 C   0  0  0  0  0  0  0  0  0  0  0  0
   -3.9583    5.1814    0.0000 C   0  0  0  0  0  0  0  0  0  0  0  0
   -4.4218    3.7548    0.0000 C   0  0  0  0  0  0  0  0  0  0  0  0
   -5.8891    3.4430    0.0000 N   0  0  0  0  0  0  0  0  0  0  0  0
   -6.3526    2.0164    0.0000 N   0  0  0  0  0  0  0  0  0  0  0  0
   -7.8198    1.7045    0.0000 N   0  0  0  0  0  0  0  0  0  0  0  0
   -8.8235    2.8192    0.0000 N   0  0  0  0  0  0  0  0  0  0  0  0
   -8.3600    4.2458    0.0000 N   0  0  0  0  0  0  0  0  0  0  0  0
   -6.8928    4.5577    0.0000 N   0  0  0  0  0  0  0  0  0  0  0  0
   -6.4292    5.9843    0.0000 C   0  0  0  0  0  0  0  0  0  0  0  0
   -4.9620    6.2961    0.0000 C   0  0  0  0  0  0  0  0  0  0  0  0
   -4.4985    7.7227    0.0000 C   0  0  0  0  0  0  0  0  0  0  0  0
   -5.5022    8.8374    0.0000 C   0  0  0  0  0  0  0  0  0  0  0  0
   -5.0387   10.2640    0.0000 C   0  0  0  0  0  0  0  0  0  0  0  0
   -6.0424   11.3787    0.0000 O   0  0  0  0  0  0  0  0  0  0  0  0
   -3.5714   10.5759    0.0000 N   0  0  0  0  0  0  0  0  0  0  0  0
   -3.1079   12.0025    0.0000 O   0  0  0  0  0  0  0  0  0  0  0  0
   -6.9694    8.5256    0.0000 C   0  0  0  0  0  0  0  0  0  0  0  0
   -7.4329    7.0990    0.0000 C   0  0  0  0  0  0  0  0  0  0  0  0
   -8.9002    6.7871    0.0000 O   0  0  0  0  0  0  0  0  0  0  0  0
   -0.7500   -1.2990    0.0000 C   0  0  0  0  0  0  0  0  0  0  0  0
   -1.5000   -2.5981    0.0000 O   0  0  0  0  0  0  0  0  0  0  0  0
    0.7500   -1.2990    0.0000 N   0  0  0  0  0  0  0  0  0  0  0  0
  1  2  1  0
  2  3  2  0
  3  4  1  0
  4  5  2  0
  5  6  1  0
  6  7  2  0
  7  8  1  0
  8  9  2  0
  9 10  1  0
 10 11  1  0
 11 12  2  0
 12 13  1  0
 13 14  2  0
 14 15  1  0
 15 16  2  0
 16 17  1  0
 17 18  1  0
 18 19  2  0
 19 20  1  0
 20 21  2  0
 21 22  1  0
 22 23  1  0
 23 24  2  0
 24 25  1  0
 25 26  2  0
 26 27  1  0
 27 28  2  0
 27 29  1  0
 29 30  1  0
 26 31  1  0
 31 32  1  0
 32 33  2  0
  5 34  1  0
 34 35  2  0
 34 36  1  0
 36  2  1  0
 10  6  1  0
 16 11  1  0
 22 17  1  0
 32 23  1  0
M  END
>  <Title>  (644) 
idAAYTgen8

$$$$

     RDKit          2D

 56 63  0  0  0  0  0  0  0  0999 V2000
    3.0000    0.0000    0.0000 C   0  0  0  0  0  0  0  0  0  0  0  0
    1.5000    0.0000    0.0000 C   0  0  0  0  0  0  0  0  0  0  0  0
    0.7500   -1.2990    0.0000 C   0  0  0  0  0  0  0  0  0  0  0  0
   -0.7500   -1.2990    0.0000 C   0  0  0  0  0  0  0  0  0  0  0  0
   -1.5000    0.0000    0.0000 C   0  0  0  0  0  0  0  0  0  0  0  0
   -3.0000    0.0000    0.0000 C   0  0  0  0  0  0  0  0  0  0  0  0
   -3.7500   -1.2990    0.0000 O   0  0  0  0  0  0  0  0  0  0  0  0
   -3.7500    1.2990    0.0000 N   0  0  0  0  0  0  0  0  0  0  0  0
   -5.2500    1.2990    0.0000 C   0  0  0  0  0  0  0  0  0  0  0  0
   -6.1317    0.0855    0.0000 N   0  0  0  0  0  0  0  0  0  0  0  0
   -7.5583    0.5490    0.0000 N   0  0  0  0  0  0  0  0  0  0  0  0
   -7.5583    2.0490    0.0000 N   0  0  0  0  0  0  0  0  0  0  0  0
   -6.1317    2.5126    0.0000 N   0  0  0  0  0  0  0  0  0  0  0  0
   -5.6682    3.9391    0.0000 C   0  0  0  0  0  0  0  0  0  0  0  0
   -4.2009    4.2510    0.0000 C   0  0  0  0  0  0  0  0  0  0  0  0
   -3.7374    5.6776    0.0000 C   0  0  0  0  0  0  0  0  0  0  0  0
   -4.7411    6.7923    0.0000 C   0  0  0  0  0  0  0  0  0  0  0  0
   -4.2776    8.2189    0.0000 C   0  0  0  0  0  0  0  0  0  0  0  0
   -5.2813    9.3336    0.0000 O   0  0  0  0  0  0  0  0  0  0  0  0
   -2.8104    8.5308    0.0000 N   0  0  0  0  0  0  0  0  0  0  0  0
   -2.3468    9.9574    0.0000 C   0  0  0  0  0  0  0  0  0  0  0  0
   -3.2285   11.1709    0.0000 N   0  0  0  0  0  0  0  0  0  0  0  0
   -2.3468   12.3844    0.0000 N   0  0  0  0  0  0  0  0  0  0  0  0
   -0.9202   11.9209    0.0000 N   0  0  0  0  0  0  0  0  0  0  0  0
   -0.9202   10.4209    0.0000 N   0  0  0  0  0  0  0  0  0  0  0  0
    0.2933    9.5392    0.0000 C   0  0  0  0  0  0  0  0  0  0  0  0
    0.1365    8.0474    0.0000 C   0  0  0  0  0  0  0  0  0  0  0  0
    1.3500    7.1657    0.0000 C   0  0  0  0  0  0  0  0  0  0  0  0
    2.7203    7.7758    0.0000 C   0  0  0  0  0  0  0  0  0  0  0  0
    2.8771    9.2676    0.0000 C   0  0  0  0  0  0  0  0  0  0  0  0
    1.6636   10.1493    0.0000 C   0  0  0  0  0  0  0  0  0  0  0  0
   -6.2083    6.4805    0.0000 C   0  0  0  0  0  0  0  0  0  0  0  0
   -6.6718    5.0539    0.0000 C   0  0  0  0  0  0  0  0  0  0  0  0
   -8.1391    4.7420    0.0000 C   0  0  0  0  0  0  0  0  0  0  0  0
   -8.7492    3.3717    0.0000 C   0  0  0  0  0  0  0  0  0  0  0  0
  -10.2410    3.5285    0.0000 C   0  0  0  0  0  0  0  0  0  0  0  0
  -10.5528    4.9957    0.0000 C   0  0  0  0  0  0  0  0  0  0  0  0
  -11.9231    5.6058    0.0000 C   0  0  0  0  0  0  0  0  0  0  0  0
  -13.1367    4.7241    0.0000 O   0  0  0  0  0  0  0  0  0  0  0  0
  -12.0799    7.0976    0.0000 N   0  0  0  0  0  0  0  0  0  0  0  0
  -13.4503    7.7077    0.0000 C   0  0  0  0  0  0  0  0  0  0  0  0
  -14.7493    6.9577    0.0000 N   0  0  0  0  0  0  0  0  0  0  0  0
  -15.8640    7.9614    0.0000 N   0  0  0  0  0  0  0  0  0  0  0  0
  -15.2539    9.3317    0.0000 N   0  0  0  0  0  0  0  0  0  0  0  0
  -13.7621    9.1749    0.0000 N   0  0  0  0  0  0  0  0  0  0  0  0
  -12.7584   10.2896    0.0000 C   0  0  0  0  0  0  0  0  0  0  0  0
  -11.2912    9.9778    0.0000 C   0  0  0  0  0  0  0  0  0  0  0  0
  -10.2875   11.0925    0.0000 C   0  0  0  0  0  0  0  0  0  0  0  0
  -10.7510   12.5191    0.0000 C   0  0  0  0  0  0  0  0  0  0  0  0
  -12.2183   12.8309    0.0000 C   0  0  0  0  0  0  0  0  0  0  0  0
  -13.2220   11.7162    0.0000 C   0  0  0  0  0  0  0  0  0  0  0  0
   -9.2538    5.7457    0.0000 C   0  0  0  0  0  0  0  0  0  0  0  0
   -9.0970    7.2375    0.0000 O   0  0  0  0  0  0  0  0  0  0  0  0
   -0.7500    1.2990    0.0000 C   0  0  0  0  0  0  0  0  0  0  0  0
   -1.5000    2.5981    0.0000 O   0  0  0  0  0  0  0  0  0  0  0  0
    0.7500    1.2990    0.0000 N   0  0  0  0  0  0  0  0  0  0  0  0
  1  2  1  0
  2  3  2  0
  3  4  1  0
  4  5  2  0
  5  6  1  0
  6  7  2  0
  6  8  1  0
  8  9  1  0
  9 10  2  0
 10 11  1  0
 11 12  2  0
 12 13  1  0
 13 14  1  0
 14 15  2  0
 15 16  1  0
 16 17  2  0
 17 18  1  0
 18 19  2  0
 18 20  1  0
 20 21  1  0
 21 22  2  0
 22 23  1  0
 23 24  2  0
 24 25  1  0
 25 26  1  0
 26 27  2  0
 27 28  1  0
 28 29  2  0
 29 30  1  0
 30 31  2  0
 17 32  1  0
 32 33  2  0
 33 34  1  0
 34 35  2  0
 35 36  1  0
 36 37  2  0
 37 38  1  0
 38 39  2  0
 38 40  1  0
 40 41  1  0
 41 42  2  0
 42 43  1  0
 43 44  2  0
 44 45  1  0
 45 46  1  0
 46 47  2  0
 47 48  1  0
 48 49  2  0
 49 50  1  0
 50 51  2  0
 37 52  1  0
 52 53  2  0
  5 54  1  0
 54 55  2  0
 54 56  1  0
 56  2  1  0
 13  9  1  0
 33 14  1  0
 52 34  1  0
 25 21  1  0
 31 26  1  0
 45 41  1  0
 51 46  1  0
M  END
>  <Title>  (645) 
idAAYUgen8

$$$$

     RDKit          2D

 28 29  0  0  0  0  0  0  0  0999 V2000
    8.4200    5.5244    0.0000 C   0  0  0  0  0  0  0  0  0  0  0  0
    7.4204    4.4059    0.0000 C   0  0  0  0  0  0  0  0  0  0  0  0
    8.0713    3.0545    0.0000 C   0  0  0  0  0  0  0  0  0  0  0  0
    7.5758    1.6387    0.0000 C   0  0  0  0  0  0  0  0  0  0  0  0
    6.2244    0.9878    0.0000 C   0  0  0  0  0  0  0  0  0  0  0  0
    4.8086    1.4832    0.0000 C   0  0  0  0  0  0  0  0  0  0  0  0
    5.0321    0.0000    0.0000 C   0  0  0  0  0  0  0  0  0  0  0  0
    4.8086   -1.4832    0.0000 C   0  0  0  0  0  0  0  0  0  0  0  0
    4.1577   -2.8347    0.0000 C   0  0  0  0  0  0  0  0  0  0  0  0
    3.1375   -3.9343    0.0000 C   0  0  0  0  0  0  0  0  0  0  0  0
    1.8384   -4.6843    0.0000 C   0  0  0  0  0  0  0  0  0  0  0  0
    0.3761   -5.0181    0.0000 C   0  0  0  0  0  0  0  0  0  0  0  0
   -1.1198   -4.9060    0.0000 C   0  0  0  0  0  0  0  0  0  0  0  0
   -2.5161   -4.3580    0.0000 C   0  0  0  0  0  0  0  0  0  0  0  0
   -3.6888   -3.4227    0.0000 C   0  0  0  0  0  0  0  0  0  0  0  0
   -4.5338   -2.1834    0.0000 C   0  0  0  0  0  0  0  0  0  0  0  0
   -4.9759   -0.7500    0.0000 C   0  0  0  0  0  0  0  0  0  0  0  0
   -4.9759    0.7500    0.0000 C   0  0  0  0  0  0  0  0  0  0  0  0
   -4.5338    2.1834    0.0000 C   0  0  0  0  0  0  0  0  0  0  0  0
   -3.6888    3.4227    0.0000 C   0  0  0  0  0  0  0  0  0  0  0  0
   -2.5161    4.3580    0.0000 C   0  0  0  0  0  0  0  0  0  0  0  0
   -1.1198    4.9060    0.0000 C   0  0  0  0  0  0  0  0  0  0  0  0
    0.3761    5.0181    0.0000 C   0  0  0  0  0  0  0  0  0  0  0  0
    1.8384    4.6843    0.0000 C   0  0  0  0  0  0  0  0  0  0  0  0
    3.1375    3.9343    0.0000 C   0  0  0  0  0  0  0  0  0  0  0  0
    4.1577    2.8347    0.0000 C   0  0  0  0  0  0  0  0  0  0  0  0
    4.6532    4.2505    0.0000 C   0  0  0  0  0  0  0  0  0  0  0  0
    6.0046    4.9014    0.0000 C   0  0  0  0  0  0  0  0  0  0  0  0
  1  2  1  0
  2  3  2  0
  3  4  1  0
  4  5  2  0
  5  6  2  0
  6  7  1  0
  7  8  2  0
  8  9  1  0
  9 10  2  0
 10 11  1  0
 11 12  2  0
 12 13  1  0
 13 14  2  0
 14 15  1  0
 15 16  2  0
 16 17  1  0
 17 18  2  0
 18 19  1  0
 19 20  2  0
 20 21  1  0
 21 22  2  0
 22 23  1  0
 23 24  2  0
 24 25  1  0
 25 26  2  0
 26 27  1  0
 27 28  1  0
 28  2  1  0
 26  6  1  0
M  END
>  <Title>  (646) 
idAAYVgen8

$$$$

     RDKit          2D

 44 50  0  0  0  0  0  0  0  0999 V2000
    3.2286   -0.0000    0.0000 C   0  0  0  0  0  0  0  0  0  0  0  0
    1.7286    0.0000    0.0000 C   0  0  0  0  0  0  0  0  0  0  0  0
    1.0777    1.3515    0.0000 C   0  0  0  0  0  0  0  0  0  0  0  0
   -0.3846    1.6852    0.0000 C   0  0  0  0  0  0  0  0  0  0  0  0
   -1.5574    0.7500    0.0000 C   0  0  0  0  0  0  0  0  0  0  0  0
   -2.9088    1.4008    0.0000 C   0  0  0  0  0  0  0  0  0  0  0  0
   -4.2297    0.6900    0.0000 N   0  0  0  0  0  0  0  0  0  0  0  0
   -5.3139    1.7266    0.0000 N   0  0  0  0  0  0  0  0  0  0  0  0
   -4.6631    3.0781    0.0000 N   0  0  0  0  0  0  0  0  0  0  0  0
   -3.1767    2.8767    0.0000 N   0  0  0  0  0  0  0  0  0  0  0  0
   -2.1401    3.9609    0.0000 C   0  0  0  0  0  0  0  0  0  0  0  0
   -0.6829    3.6053    0.0000 C   0  0  0  0  0  0  0  0  0  0  0  0
    0.3537    4.6895    0.0000 C   0  0  0  0  0  0  0  0  0  0  0  0
   -0.0669    6.1293    0.0000 C   0  0  0  0  0  0  0  0  0  0  0  0
   -1.5241    6.4849    0.0000 C   0  0  0  0  0  0  0  0  0  0  0  0
   -2.5607    5.4007    0.0000 C   0  0  0  0  0  0  0  0  0  0  0  0
   -4.0180    5.7563    0.0000 C   0  0  0  0  0  0  0  0  0  0  0  0
   -5.1622    4.7864    0.0000 N   0  0  0  0  0  0  0  0  0  0  0  0
   -6.4382    5.5750    0.0000 N   0  0  0  0  0  0  0  0  0  0  0  0
   -6.0826    7.0322    0.0000 N   0  0  0  0  0  0  0  0  0  0  0  0
   -4.5868    7.1443    0.0000 N   0  0  0  0  0  0  0  0  0  0  0  0
   -3.7983    8.4203    0.0000 C   0  0  0  0  0  0  0  0  0  0  0  0
   -4.3671    9.8083    0.0000 C   0  0  0  0  0  0  0  0  0  0  0  0
   -3.2229   10.7782    0.0000 C   0  0  0  0  0  0  0  0  0  0  0  0
   -1.9468    9.9897    0.0000 C   0  0  0  0  0  0  0  0  0  0  0  0
   -0.5589   10.5585    0.0000 C   0  0  0  0  0  0  0  0  0  0  0  0
    0.7171    9.7700    0.0000 N   0  0  0  0  0  0  0  0  0  0  0  0
    1.8614   10.7399    0.0000 N   0  0  0  0  0  0  0  0  0  0  0  0
    1.2925   12.1278    0.0000 N   0  0  0  0  0  0  0  0  0  0  0  0
   -0.2033   12.0157    0.0000 N   0  0  0  0  0  0  0  0  0  0  0  0
   -1.1732   13.1600    0.0000 C   0  0  0  0  0  0  0  0  0  0  0  0
   -2.6491   12.8921    0.0000 C   0  0  0  0  0  0  0  0  0  0  0  0
   -3.6190   14.0364    0.0000 C   0  0  0  0  0  0  0  0  0  0  0  0
   -3.1130   15.4485    0.0000 C   0  0  0  0  0  0  0  0  0  0  0  0
   -1.6371   15.7163    0.0000 C   0  0  0  0  0  0  0  0  0  0  0  0
   -1.1311   17.1284    0.0000 F   0  0  0  0  0  0  0  0  0  0  0  0
   -0.6672   14.5720    0.0000 C   0  0  0  0  0  0  0  0  0  0  0  0
    0.8087   14.8399    0.0000 O   0  0  0  0  0  0  0  0  0  0  0  0
   -2.3025    8.5324    0.0000 C   0  0  0  0  0  0  0  0  0  0  0  0
   -1.3326    7.3882    0.0000 O   0  0  0  0  0  0  0  0  0  0  0  0
   -1.5574   -0.7500    0.0000 N   0  0  0  0  0  0  0  0  0  0  0  0
   -0.3846   -1.6852    0.0000 C   0  0  0  0  0  0  0  0  0  0  0  0
   -0.7184   -3.1476    0.0000 O   0  0  0  0  0  0  0  0  0  0  0  0
    1.0777   -1.3515    0.0000 N   0  0  0  0  0  0  0  0  0  0  0  0
  1  2  1  0
  2  3  2  0
  3  4  1  0
  4  5  2  0
  5  6  1  0
  6  7  2  0
  7  8  1  0
  8  9  2  0
  9 10  1  0
 10 11  1  0
 11 12  1  0
 12 13  1  0
 13 14  1  0
 14 15  1  0
 15 16  1  0
 16 17  1  0
 17 18  2  0
 18 19  1  0
 19 20  2  0
 20 21  1  0
 21 22  1  0
 22 23  2  0
 23 24  1  0
 24 25  2  0
 25 26  1  0
 26 27  2  0
 27 28  1  0
 28 29  2  0
 29 30  1  0
 30 31  1  0
 31 32  1  0
 32 33  1  0
 33 34  1  0
 34 35  2  0
 35 36  1  0
 35 37  1  0
 37 38  2  0
 25 39  1  0
 39 40  2  0
  5 41  1  0
 41 42  1  0
 42 43  2  0
 42 44  1  0
 44  2  1  0
 10  6  1  0
 16 11  1  0
 21 17  1  0
 39 22  1  0
 30 26  1  0
 37 31  1  0
M  END
>  <Title>  (647) 
idAAYWgen8

$$$$

     RDKit          2D

 29 30  0  0  0  0  0  0  0  0999 V2000
   13.9444    3.3645    0.0000 C   0  0  0  0  0  0  0  0  0  0  0  0
   12.5741    2.7544    0.0000 O   0  0  0  0  0  0  0  0  0  0  0  0
   12.4173    1.2626    0.0000 C   0  0  0  0  0  0  0  0  0  0  0  0
   13.6308    0.3809    0.0000 C   0  0  0  0  0  0  0  0  0  0  0  0
   13.4740   -1.1109    0.0000 C   0  0  0  0  0  0  0  0  0  0  0  0
   12.1037   -1.7210    0.0000 C   0  0  0  0  0  0  0  0  0  0  0  0
   10.8902   -0.8393    0.0000 C   0  0  0  0  0  0  0  0  0  0  0  0
   11.0470    0.6525    0.0000 C   0  0  0  0  0  0  0  0  0  0  0  0
    9.8334    1.5342    0.0000 N   0  0  0  0  0  0  0  0  0  0  0  0
    8.4631    0.9241    0.0000 C   0  0  0  0  0  0  0  0  0  0  0  0
    7.2496    1.8058    0.0000 C   0  0  0  0  0  0  0  0  0  0  0  0
    5.8793    1.1956    0.0000 C   0  0  0  0  0  0  0  0  0  0  0  0
    4.6658    2.0773    0.0000 C   0  0  0  0  0  0  0  0  0  0  0  0
    3.2954    1.4672    0.0000 C   0  0  0  0  0  0  0  0  0  0  0  0
    3.6073    0.0000    0.0000 N   0  0  0  0  0  0  0  0  0  0  0  0
    3.2954   -1.4672    0.0000 C   0  0  0  0  0  0  0  0  0  0  0  0
    2.4138   -2.6807    0.0000 C   0  0  0  0  0  0  0  0  0  0  0  0
    1.1147   -3.4307    0.0000 C   0  0  0  0  0  0  0  0  0  0  0  0
   -0.3771   -3.5875    0.0000 C   0  0  0  0  0  0  0  0  0  0  0  0
   -1.8037   -3.1240    0.0000 C   0  0  0  0  0  0  0  0  0  0  0  0
   -2.9184   -2.1203    0.0000 C   0  0  0  0  0  0  0  0  0  0  0  0
   -3.5285   -0.7500    0.0000 C   0  0  0  0  0  0  0  0  0  0  0  0
   -3.5285    0.7500    0.0000 C   0  0  0  0  0  0  0  0  0  0  0  0
   -2.9184    2.1203    0.0000 C   0  0  0  0  0  0  0  0  0  0  0  0
   -1.8037    3.1240    0.0000 C   0  0  0  0  0  0  0  0  0  0  0  0
   -0.3771    3.5875    0.0000 C   0  0  0  0  0  0  0  0  0  0  0  0
    1.1147    3.4307    0.0000 C   0  0  0  0  0  0  0  0  0  0  0  0
    2.4138    2.6807    0.0000 C   0  0  0  0  0  0  0  0  0  0  0  0
    3.4175    3.7955    0.0000 O   0  0  0  0  0  0  0  0  0  0  0  0
  1  2  1  0
  2  3  1  0
  3  4  2  0
  4  5  1  0
  5  6  2  0
  6  7  1  0
  7  8  2  0
  8  9  1  0
  9 10  1  0
 10 11  1  0
 11 12  1  0
 12 13  1  0
 13 14  1  0
 14 15  1  0
 15 16  1  0
 16 17  1  0
 17 18  2  0
 18 19  1  0
 19 20  2  0
 20 21  1  0
 21 22  2  0
 22 23  1  0
 23 24  2  0
 24 25  1  0
 25 26  2  0
 26 27  1  0
 27 28  2  0
 28 29  1  0
  8  3  1  0
 28 14  1  0
M  END
>  <Title>  (648) 
idAAYXgen8

$$$$

     RDKit          2D

 14 14  0  0  0  0  0  0  0  0999 V2000
    6.1771   -1.2990    0.0000 C   0  0  0  0  0  0  0  0  0  0  0  0
    4.6771   -1.2990    0.0000 C   0  0  0  0  0  0  0  0  0  0  0  0
    3.9271   -2.5981    0.0000 O   0  0  0  0  0  0  0  0  0  0  0  0
    3.9271    0.0000    0.0000 O   0  0  0  0  0  0  0  0  0  0  0  0
    2.4271    0.0000    0.0000 C   0  0  0  0  0  0  0  0  0  0  0  0
    1.9635   -1.4266    0.0000 C   0  0  0  0  0  0  0  0  0  0  0  0
    0.7500   -2.3083    0.0000 C   0  0  0  0  0  0  0  0  0  0  0  0
   -0.7500   -2.3083    0.0000 C   0  0  0  0  0  0  0  0  0  0  0  0
   -1.9635   -1.4266    0.0000 C   0  0  0  0  0  0  0  0  0  0  0  0
   -2.4271    0.0000    0.0000 C   0  0  0  0  0  0  0  0  0  0  0  0
   -1.9635    1.4266    0.0000 C   0  0  0  0  0  0  0  0  0  0  0  0
   -0.7500    2.3083    0.0000 C   0  0  0  0  0  0  0  0  0  0  0  0
    0.7500    2.3083    0.0000 C   0  0  0  0  0  0  0  0  0  0  0  0
    1.9635    1.4266    0.0000 C   0  0  0  0  0  0  0  0  0  0  0  0
  1  2  1  0
  2  3  2  0
  2  4  1  0
  4  5  1  0
  5  6  2  0
  6  7  1  0
  7  8  2  0
  8  9  1  0
  9 10  2  0
 10 11  1  0
 11 12  2  0
 12 13  1  0
 13 14  2  0
 14  5  1  0
M  END
>  <Title>  (649) 
idAAYYgen8

$$$$

     RDKit          2D

 33 33  0  0  0  0  0  0  0  0999 V2000
    9.1517    0.0000    0.0000 C   0  0  0  0  0  0  0  0  0  0  0  0
    7.6517    0.0000    0.0000 C   0  0  0  0  0  0  0  0  0  0  0  0
    7.5047   -1.4928    0.0000 C   0  0  0  0  0  0  0  0  0  0  0  0
    7.0693   -2.9282    0.0000 C   0  0  0  0  0  0  0  0  0  0  0  0
    6.3622   -4.2511    0.0000 C   0  0  0  0  0  0  0  0  0  0  0  0
    5.4106   -5.4106    0.0000 C   0  0  0  0  0  0  0  0  0  0  0  0
    4.2511   -6.3622    0.0000 C   0  0  0  0  0  0  0  0  0  0  0  0
    2.9282   -7.0693    0.0000 C   0  0  0  0  0  0  0  0  0  0  0  0
    1.4928   -7.5047    0.0000 C   0  0  0  0  0  0  0  0  0  0  0  0
   -0.0000   -7.6517    0.0000 C   0  0  0  0  0  0  0  0  0  0  0  0
   -1.4928   -7.5047    0.0000 C   0  0  0  0  0  0  0  0  0  0  0  0
   -2.9282   -7.0693    0.0000 C   0  0  0  0  0  0  0  0  0  0  0  0
   -4.2511   -6.3622    0.0000 C   0  0  0  0  0  0  0  0  0  0  0  0
   -5.4106   -5.4106    0.0000 C   0  0  0  0  0  0  0  0  0  0  0  0
   -6.3622   -4.2511    0.0000 C   0  0  0  0  0  0  0  0  0  0  0  0
   -7.0693   -2.9282    0.0000 C   0  0  0  0  0  0  0  0  0  0  0  0
   -7.5047   -1.4928    0.0000 C   0  0  0  0  0  0  0  0  0  0  0  0
   -7.6517    0.0000    0.0000 C   0  0  0  0  0  0  0  0  0  0  0  0
   -7.5047    1.4928    0.0000 C   0  0  0  0  0  0  0  0  0  0  0  0
   -7.0693    2.9282    0.0000 C   0  0  0  0  0  0  0  0  0  0  0  0
   -6.3622    4.2511    0.0000 C   0  0  0  0  0  0  0  0  0  0  0  0
   -5.4106    5.4106    0.0000 C   0  0  0  0  0  0  0  0  0  0  0  0
   -4.2511    6.3622    0.0000 C   0  0  0  0  0  0  0  0  0  0  0  0
   -2.9282    7.0693    0.0000 C   0  0  0  0  0  0  0  0  0  0  0  0
   -1.4928    7.5047    0.0000 C   0  0  0  0  0  0  0  0  0  0  0  0
    0.0000    7.6517    0.0000 C   0  0  0  0  0  0  0  0  0  0  0  0
    1.4928    7.5047    0.0000 C   0  0  0  0  0  0  0  0  0  0  0  0
    2.9282    7.0693    0.0000 C   0  0  0  0  0  0  0  0  0  0  0  0
    4.2511    6.3622    0.0000 C   0  0  0  0  0  0  0  0  0  0  0  0
    5.4106    5.4106    0.0000 C   0  0  0  0  0  0  0  0  0  0  0  0
    6.3622    4.2511    0.0000 C   0  0  0  0  0  0  0  0  0  0  0  0
    7.0693    2.9282    0.0000 C   0  0  0  0  0  0  0  0  0  0  0  0
    7.5047    1.4928    0.0000 C   0  0  0  0  0  0  0  0  0  0  0  0
  1  2  1  0
  2  3  2  0
  3  4  1  0
  4  5  2  0
  5  6  2  0
  6  7  1  0
  7  8  1  0
  8  9  2  0
  9 10  1  0
 10 11  2  0
 11 12  1  0
 12 13  2  0
 13 14  1  0
 14 15  2  0
 15 16  1  0
 16 17  2  0
 17 18  1  0
 18 19  2  0
 19 20  1  0
 20 21  2  0
 21 22  1  0
 22 23  2  0
 23 24  1  0
 24 25  2  0
 25 26  1  0
 26 27  2  0
 27 28  1  0
 28 29  2  0
 29 30  1  0
 30 31  2  0
 31 32  1  0
 32 33  2  0
 33  2  1  0
M  END
>  <Title>  (650) 
idAAYZgen8

$$$$

     RDKit          2D

 48 54  0  0  0  0  0  0  0  0999 V2000
    9.8339   -0.0478    0.0000 C   0  0  0  0  0  0  0  0  0  0  0  0
    9.1529   -1.3843    0.0000 C   0  0  0  0  0  0  0  0  0  0  0  0
    9.9699   -2.6423    0.0000 C   0  0  0  0  0  0  0  0  0  0  0  0
    9.2889   -3.9788    0.0000 C   0  0  0  0  0  0  0  0  0  0  0  0
    7.7910   -4.0573    0.0000 C   0  0  0  0  0  0  0  0  0  0  0  0
    7.1100   -5.3938    0.0000 N   0  0  0  0  0  0  0  0  0  0  0  0
    7.7910   -6.7303    0.0000 N   0  0  0  0  0  0  0  0  0  0  0  0
    6.7303   -7.7910    0.0000 N   0  0  0  0  0  0  0  0  0  0  0  0
    5.3938   -7.1100    0.0000 N   0  0  0  0  0  0  0  0  0  0  0  0
    5.6285   -5.6285    0.0000 C   0  0  0  0  0  0  0  0  0  0  0  0
    4.5678   -4.5678    0.0000 C   0  0  0  0  0  0  0  0  0  0  0  0
    4.9560   -3.1189    0.0000 C   0  0  0  0  0  0  0  0  0  0  0  0
    3.8954   -2.0583    0.0000 C   0  0  0  0  0  0  0  0  0  0  0  0
    2.4465   -2.4465    0.0000 C   0  0  0  0  0  0  0  0  0  0  0  0
    1.3858   -1.3858    0.0000 N   0  0  0  0  0  0  0  0  0  0  0  0
   -0.0000   -1.9598    0.0000 N   0  0  0  0  0  0  0  0  0  0  0  0
   -1.3858   -1.3858    0.0000 N   0  0  0  0  0  0  0  0  0  0  0  0
   -1.9598   -0.0000    0.0000 N   0  0  0  0  0  0  0  0  0  0  0  0
   -1.3858    1.3858    0.0000 N   0  0  0  0  0  0  0  0  0  0  0  0
   -0.0000    1.9598    0.0000 C   0  0  0  0  0  0  0  0  0  0  0  0
    1.3858    1.3858    0.0000 C   0  0  0  0  0  0  0  0  0  0  0  0
    1.9598    0.0000    0.0000 C   0  0  0  0  0  0  0  0  0  0  0  0
    3.4598    0.0000    0.0000 N   0  0  0  0  0  0  0  0  0  0  0  0
    4.3415   -1.2135    0.0000 N   0  0  0  0  0  0  0  0  0  0  0  0
    5.7681   -0.7500    0.0000 N   0  0  0  0  0  0  0  0  0  0  0  0
    5.7681    0.7500    0.0000 N   0  0  0  0  0  0  0  0  0  0  0  0
    4.3415    1.2135    0.0000 C   0  0  0  0  0  0  0  0  0  0  0  0
    3.8780    2.6401    0.0000 C   0  0  0  0  0  0  0  0  0  0  0  0
    2.4108    2.9520    0.0000 C   0  0  0  0  0  0  0  0  0  0  0  0
    1.9472    4.3786    0.0000 C   0  0  0  0  0  0  0  0  0  0  0  0
    2.9509    5.4933    0.0000 C   0  0  0  0  0  0  0  0  0  0  0  0
    2.4874    6.9199    0.0000 C   0  0  0  0  0  0  0  0  0  0  0  0
    4.4182    5.1814    0.0000 C   0  0  0  0  0  0  0  0  0  0  0  0
    5.4219    6.2961    0.0000 O   0  0  0  0  0  0  0  0  0  0  0  0
    4.8817    3.7548    0.0000 N   0  0  0  0  0  0  0  0  0  0  0  0
    6.3489    3.4430    0.0000 O   0  0  0  0  0  0  0  0  0  0  0  0
    2.0583   -3.8954    0.0000 C   0  0  0  0  0  0  0  0  0  0  0  0
    0.6094   -4.2836    0.0000 C   0  0  0  0  0  0  0  0  0  0  0  0
   -0.4513   -3.2229    0.0000 C   0  0  0  0  0  0  0  0  0  0  0  0
   -1.9002   -3.6112    0.0000 C   0  0  0  0  0  0  0  0  0  0  0  0
   -2.2884   -5.0601    0.0000 C   0  0  0  0  0  0  0  0  0  0  0  0
   -3.7373   -5.4483    0.0000 C   0  0  0  0  0  0  0  0  0  0  0  0
   -1.2278   -6.1207    0.0000 C   0  0  0  0  0  0  0  0  0  0  0  0
   -1.6160   -7.5696    0.0000 O   0  0  0  0  0  0  0  0  0  0  0  0
    0.2211   -5.7325    0.0000 N   0  0  0  0  0  0  0  0  0  0  0  0
    3.1189   -4.9560    0.0000 C   0  0  0  0  0  0  0  0  0  0  0  0
    6.9740   -2.7993    0.0000 C   0  0  0  0  0  0  0  0  0  0  0  0
    7.6550   -1.4628    0.0000 C   0  0  0  0  0  0  0  0  0  0  0  0
  1  2  1  0
  2  3  2  0
  3  4  1  0
  4  5  2  0
  5  6  1  0
  6  7  1  0
  7  8  2  0
  8  9  1  0
  9 10  2  0
 10 11  1  0
 11 12  2  0
 12 13  1  0
 13 14  2  0
 14 15  1  0
 15 16  1  0
 16 17  2  0
 17 18  1  0
 18 19  2  0
 19 20  1  0
 20 21  1  0
 21 22  2  0
 22 23  1  0
 23 24  1  0
 24 25  2  0
 25 26  1  0
 26 27  2  0
 27 28  1  0
 28 29  2  0
 29 30  1  0
 30 31  2  0
 31 32  1  0
 31 33  1  0
 33 34  2  0
 33 35  1  0
 35 36  1  0
 14 37  1  0
 37 38  1  0
 38 39  2  0
 39 40  1  0
 40 41  2  0
 41 42  1  0
 41 43  1  0
 43 44  2  0
 43 45  1  0
 37 46  2  0
  5 47  1  0
 47 48  1  0
 48  2  1  0
 10  6  1  0
 46 11  1  0
 22 15  1  0
 27 23  1  0
 35 28  1  0
 45 38  1  0
M  END
>  <Title>  (651) 
idAAZAgen8

$$$$

     RDKit          2D

 19 19  0  0  0  0  0  0  0  0999 V2000
    5.8191    0.0000    0.0000 N   0  0  0  0  0  0  0  0  0  0  0  0
    4.3191    0.0000    0.0000 C   0  0  0  0  0  0  0  0  0  0  0  0
    4.0586   -1.4772    0.0000 C   0  0  0  0  0  0  0  0  0  0  0  0
    3.3086   -2.7762    0.0000 C   0  0  0  0  0  0  0  0  0  0  0  0
    2.1595   -3.7404    0.0000 C   0  0  0  0  0  0  0  0  0  0  0  0
    0.7500   -4.2535    0.0000 C   0  0  0  0  0  0  0  0  0  0  0  0
   -0.7500   -4.2535    0.0000 C   0  0  0  0  0  0  0  0  0  0  0  0
   -2.1595   -3.7404    0.0000 C   0  0  0  0  0  0  0  0  0  0  0  0
   -3.3086   -2.7762    0.0000 C   0  0  0  0  0  0  0  0  0  0  0  0
   -4.0586   -1.4772    0.0000 C   0  0  0  0  0  0  0  0  0  0  0  0
   -4.3191    0.0000    0.0000 C   0  0  0  0  0  0  0  0  0  0  0  0
   -4.0586    1.4772    0.0000 C   0  0  0  0  0  0  0  0  0  0  0  0
   -3.3086    2.7762    0.0000 C   0  0  0  0  0  0  0  0  0  0  0  0
   -2.1595    3.7404    0.0000 C   0  0  0  0  0  0  0  0  0  0  0  0
   -0.7500    4.2535    0.0000 C   0  0  0  0  0  0  0  0  0  0  0  0
    0.7500    4.2535    0.0000 C   0  0  0  0  0  0  0  0  0  0  0  0
    2.1595    3.7404    0.0000 C   0  0  0  0  0  0  0  0  0  0  0  0
    3.3086    2.7762    0.0000 C   0  0  0  0  0  0  0  0  0  0  0  0
    4.0586    1.4772    0.0000 C   0  0  0  0  0  0  0  0  0  0  0  0
  1  2  1  0
  2  3  2  0
  3  4  1  0
  4  5  2  0
  5  6  1  0
  6  7  2  0
  7  8  1  0
  8  9  2  0
  9 10  1  0
 10 11  2  0
 11 12  1  0
 12 13  2  0
 13 14  1  0
 14 15  2  0
 15 16  1  0
 16 17  2  0
 17 18  1  0
 18 19  2  0
 19  2  1  0
M  END
>  <Title>  (652) 
idAAZBgen8

$$$$

     RDKit          2D

 25 25  0  0  0  0  0  0  0  0999 V2000
    7.7580   -1.2990    0.0000 C   0  0  0  0  0  0  0  0  0  0  0  0
    7.0080   -0.0000    0.0000 C   0  0  0  0  0  0  0  0  0  0  0  0
    5.5080    0.0000    0.0000 N   0  0  0  0  0  0  0  0  0  0  0  0
    5.3037    1.4860    0.0000 C   0  0  0  0  0  0  0  0  0  0  0  0
    4.7061    2.8618    0.0000 C   0  0  0  0  0  0  0  0  0  0  0  0
    3.7595    4.0254    0.0000 C   0  0  0  0  0  0  0  0  0  0  0  0
    2.5340    4.8904    0.0000 C   0  0  0  0  0  0  0  0  0  0  0  0
    1.1206    5.3928    0.0000 C   0  0  0  0  0  0  0  0  0  0  0  0
   -0.3759    5.4951    0.0000 C   0  0  0  0  0  0  0  0  0  0  0  0
   -1.8445    5.1899    0.0000 C   0  0  0  0  0  0  0  0  0  0  0  0
   -3.1763    4.4998    0.0000 C   0  0  0  0  0  0  0  0  0  0  0  0
   -4.2726    3.4760    0.0000 C   0  0  0  0  0  0  0  0  0  0  0  0
   -5.0520    2.1944    0.0000 C   0  0  0  0  0  0  0  0  0  0  0  0
   -5.4567    0.7500    0.0000 C   0  0  0  0  0  0  0  0  0  0  0  0
   -5.4567   -0.7500    0.0000 C   0  0  0  0  0  0  0  0  0  0  0  0
   -5.0520   -2.1944    0.0000 C   0  0  0  0  0  0  0  0  0  0  0  0
   -4.2726   -3.4760    0.0000 C   0  0  0  0  0  0  0  0  0  0  0  0
   -3.1763   -4.4998    0.0000 C   0  0  0  0  0  0  0  0  0  0  0  0
   -1.8445   -5.1899    0.0000 C   0  0  0  0  0  0  0  0  0  0  0  0
   -0.3759   -5.4951    0.0000 C   0  0  0  0  0  0  0  0  0  0  0  0
    1.1206   -5.3928    0.0000 C   0  0  0  0  0  0  0  0  0  0  0  0
    2.5340   -4.8904    0.0000 C   0  0  0  0  0  0  0  0  0  0  0  0
    3.7595   -4.0254    0.0000 C   0  0  0  0  0  0  0  0  0  0  0  0
    4.7061   -2.8618    0.0000 C   0  0  0  0  0  0  0  0  0  0  0  0
    5.3037   -1.4860    0.0000 N   0  0  0  0  0  0  0  0  0  0  0  0
  1  2  1  0
  2  3  1  0
  3  4  1  0
  4  5  1  0
  5  6  1  0
  6  7  1  0
  7  8  1  0
  8  9  1  0
  9 10  1  0
 10 11  1  0
 11 12  1  0
 12 13  1  0
 13 14  1  0
 14 15  1  0
 15 16  1  0
 16 17  1  0
 17 18  1  0
 18 19  1  0
 19 20  1  0
 20 21  1  0
 21 22  1  0
 22 23  1  0
 23 24  1  0
 24 25  1  0
 25  3  1  0
M  END
>  <Title>  (653) 
idAAZCgen8

$$$$

     RDKit          2D

 45 51  0  0  0  0  0  0  0  0999 V2000
  -11.5327    3.6666    0.0000 C   0  0  0  0  0  0  0  0  0  0  0  0
  -10.1624    4.2767    0.0000 O   0  0  0  0  0  0  0  0  0  0  0  0
   -8.9488    3.3950    0.0000 C   0  0  0  0  0  0  0  0  0  0  0  0
   -9.1056    1.9033    0.0000 C   0  0  0  0  0  0  0  0  0  0  0  0
   -7.8921    1.0216    0.0000 C   0  0  0  0  0  0  0  0  0  0  0  0
   -6.5218    1.6317    0.0000 C   0  0  0  0  0  0  0  0  0  0  0  0
   -5.3083    0.7500    0.0000 C   0  0  0  0  0  0  0  0  0  0  0  0
   -5.3083   -0.7500    0.0000 N   0  0  0  0  0  0  0  0  0  0  0  0
   -3.8817   -1.2135    0.0000 N   0  0  0  0  0  0  0  0  0  0  0  0
   -3.0000    0.0000    0.0000 N   0  0  0  0  0  0  0  0  0  0  0  0
   -3.8817    1.2135    0.0000 N   0  0  0  0  0  0  0  0  0  0  0  0
   -3.4182    2.6401    0.0000 C   0  0  0  0  0  0  0  0  0  0  0  0
   -4.2998    3.8536    0.0000 N   0  0  0  0  0  0  0  0  0  0  0  0
   -3.4182    5.0672    0.0000 N   0  0  0  0  0  0  0  0  0  0  0  0
   -1.9916    4.6036    0.0000 N   0  0  0  0  0  0  0  0  0  0  0  0
   -1.9916    3.1036    0.0000 N   0  0  0  0  0  0  0  0  0  0  0  0
   -0.7780    2.2220    0.0000 C   0  0  0  0  0  0  0  0  0  0  0  0
   -0.9348    0.7302    0.0000 C   0  0  0  0  0  0  0  0  0  0  0  0
    0.2787   -0.1515    0.0000 C   0  0  0  0  0  0  0  0  0  0  0  0
    1.6490    0.4586    0.0000 C   0  0  0  0  0  0  0  0  0  0  0  0
    2.8625   -0.4231    0.0000 C   0  0  0  0  0  0  0  0  0  0  0  0
    4.2891    0.0404    0.0000 N   0  0  0  0  0  0  0  0  0  0  0  0
    5.1708   -1.1731    0.0000 N   0  0  0  0  0  0  0  0  0  0  0  0
    4.2891   -2.3866    0.0000 N   0  0  0  0  0  0  0  0  0  0  0  0
    2.8625   -1.9231    0.0000 N   0  0  0  0  0  0  0  0  0  0  0  0
    1.6490   -2.8048    0.0000 C   0  0  0  0  0  0  0  0  0  0  0  0
    0.2787   -2.1946    0.0000 C   0  0  0  0  0  0  0  0  0  0  0  0
   -0.9348   -3.0763    0.0000 C   0  0  0  0  0  0  0  0  0  0  0  0
   -0.7780   -4.5681    0.0000 C   0  0  0  0  0  0  0  0  0  0  0  0
    0.5923   -5.1782    0.0000 C   0  0  0  0  0  0  0  0  0  0  0  0
    1.8058   -4.2965    0.0000 C   0  0  0  0  0  0  0  0  0  0  0  0
    1.8058    1.9504    0.0000 C   0  0  0  0  0  0  0  0  0  0  0  0
    0.5923    2.8321    0.0000 C   0  0  0  0  0  0  0  0  0  0  0  0
    0.7491    4.3238    0.0000 C   0  0  0  0  0  0  0  0  0  0  0  0
    2.1194    4.9340    0.0000 C   0  0  0  0  0  0  0  0  0  0  0  0
    2.2762    6.4257    0.0000 C   0  0  0  0  0  0  0  0  0  0  0  0
    1.0627    7.3074    0.0000 C   0  0  0  0  0  0  0  0  0  0  0  0
    1.2194    8.7992    0.0000 C   0  0  0  0  0  0  0  0  0  0  0  0
    0.0059    9.6809    0.0000 O   0  0  0  0  0  0  0  0  0  0  0  0
    2.5898    9.4093    0.0000 N   0  0  0  0  0  0  0  0  0  0  0  0
    2.7466   10.9011    0.0000 O   0  0  0  0  0  0  0  0  0  0  0  0
   -0.3077    6.6973    0.0000 C   0  0  0  0  0  0  0  0  0  0  0  0
   -0.4645    5.2055    0.0000 C   0  0  0  0  0  0  0  0  0  0  0  0
   -6.3650    3.1235    0.0000 C   0  0  0  0  0  0  0  0  0  0  0  0
   -7.5785    4.0051    0.0000 C   0  0  0  0  0  0  0  0  0  0  0  0
  1  2  1  0
  2  3  1  0
  3  4  2  0
  4  5  1  0
  5  6  2  0
  6  7  1  0
  7  8  2  0
  8  9  1  0
  9 10  2  0
 10 11  1  0
 11 12  1  0
 12 13  2  0
 13 14  1  0
 14 15  2  0
 15 16  1  0
 16 17  1  0
 17 18  2  0
 18 19  1  0
 19 20  2  0
 20 21  1  0
 21 22  2  0
 22 23  1  0
 23 24  2  0
 24 25  1  0
 25 26  1  0
 26 27  2  0
 27 28  1  0
 28 29  2  0
 29 30  1  0
 30 31  2  0
 20 32  1  0
 32 33  2  0
 33 34  1  0
 34 35  2  0
 35 36  1  0
 36 37  2  0
 37 38  1  0
 38 39  2  0
 38 40  1  0
 40 41  1  0
 37 42  1  0
 42 43  1  0
  6 44  1  0
 44 45  2  0
 45  3  1  0
 11  7  1  0
 16 12  1  0
 33 17  1  0
 43 34  1  0
 25 21  1  0
 31 26  1  0
M  END
>  <Title>  (654) 
idAAZDgen8

$$$$

     RDKit          2D

 50 57  0  0  0  0  0  0  0  0999 V2000
    0.8311   10.2038    0.0000 C   0  0  0  0  0  0  0  0  0  0  0  0
   -0.5392    9.5937    0.0000 C   0  0  0  0  0  0  0  0  0  0  0  0
   -1.7527   10.4753    0.0000 C   0  0  0  0  0  0  0  0  0  0  0  0
   -3.1230    9.8652    0.0000 C   0  0  0  0  0  0  0  0  0  0  0  0
   -3.2798    8.3735    0.0000 C   0  0  0  0  0  0  0  0  0  0  0  0
   -4.6502    7.7634    0.0000 C   0  0  0  0  0  0  0  0  0  0  0  0
   -5.9492    8.5134    0.0000 N   0  0  0  0  0  0  0  0  0  0  0  0
   -7.0639    7.5097    0.0000 N   0  0  0  0  0  0  0  0  0  0  0  0
   -6.4538    6.1393    0.0000 N   0  0  0  0  0  0  0  0  0  0  0  0
   -4.9620    6.2961    0.0000 N   0  0  0  0  0  0  0  0  0  0  0  0
   -3.9583    5.1814    0.0000 C   0  0  0  0  0  0  0  0  0  0  0  0
   -2.4911    5.4933    0.0000 C   0  0  0  0  0  0  0  0  0  0  0  0
   -1.4874    4.3786    0.0000 C   0  0  0  0  0  0  0  0  0  0  0  0
   -1.9509    2.9520    0.0000 C   0  0  0  0  0  0  0  0  0  0  0  0
   -3.4182    2.6401    0.0000 N   0  0  0  0  0  0  0  0  0  0  0  0
   -4.4218    3.7548    0.0000 C   0  0  0  0  0  0  0  0  0  0  0  0
   -5.8891    3.4430    0.0000 N   0  0  0  0  0  0  0  0  0  0  0  0
   -6.8928    4.5577    0.0000 N   0  0  0  0  0  0  0  0  0  0  0  0
   -8.3600    4.2458    0.0000 N   0  0  0  0  0  0  0  0  0  0  0  0
   -8.8235    2.8192    0.0000 N   0  0  0  0  0  0  0  0  0  0  0  0
   -7.8198    1.7045    0.0000 N   0  0  0  0  0  0  0  0  0  0  0  0
   -6.3526    2.0164    0.0000 N   0  0  0  0  0  0  0  0  0  0  0  0
   -5.3489    0.9017    0.0000 C   0  0  0  0  0  0  0  0  0  0  0  0
   -3.8571    1.0585    0.0000 C   0  0  0  0  0  0  0  0  0  0  0  0
   -3.2470   -0.3119    0.0000 C   0  0  0  0  0  0  0  0  0  0  0  0
   -4.3617   -1.3156    0.0000 C   0  0  0  0  0  0  0  0  0  0  0  0
   -4.2049   -2.8073    0.0000 C   0  0  0  0  0  0  0  0  0  0  0  0
   -2.8346   -3.4175    0.0000 O   0  0  0  0  0  0  0  0  0  0  0  0
   -5.4185   -3.6890    0.0000 N   0  0  0  0  0  0  0  0  0  0  0  0
   -5.2617   -5.1808    0.0000 C   0  0  0  0  0  0  0  0  0  0  0  0
   -3.9626   -5.9308    0.0000 N   0  0  0  0  0  0  0  0  0  0  0  0
   -4.2745   -7.3980    0.0000 N   0  0  0  0  0  0  0  0  0  0  0  0
   -5.7663   -7.5548    0.0000 N   0  0  0  0  0  0  0  0  0  0  0  0
   -6.3764   -6.1845    0.0000 N   0  0  0  0  0  0  0  0  0  0  0  0
   -7.8436   -5.8726    0.0000 C   0  0  0  0  0  0  0  0  0  0  0  0
   -8.9583   -6.8763    0.0000 C   0  0  0  0  0  0  0  0  0  0  0  0
  -10.2574   -6.1263    0.0000 C   0  0  0  0  0  0  0  0  0  0  0  0
   -9.9455   -4.6591    0.0000 C   0  0  0  0  0  0  0  0  0  0  0  0
  -10.9492   -3.5444    0.0000 C   0  0  0  0  0  0  0  0  0  0  0  0
  -10.4857   -2.1178    0.0000 C   0  0  0  0  0  0  0  0  0  0  0  0
  -11.4894   -1.0031    0.0000 C   0  0  0  0  0  0  0  0  0  0  0  0
  -12.9566   -1.3150    0.0000 C   0  0  0  0  0  0  0  0  0  0  0  0
  -13.4201   -2.7415    0.0000 C   0  0  0  0  0  0  0  0  0  0  0  0
  -12.4164   -3.8563    0.0000 C   0  0  0  0  0  0  0  0  0  0  0  0
   -8.4537   -4.5023    0.0000 C   0  0  0  0  0  0  0  0  0  0  0  0
   -7.7037   -3.2033    0.0000 O   0  0  0  0  0  0  0  0  0  0  0  0
   -5.6608   -0.5656    0.0000 C   0  0  0  0  0  0  0  0  0  0  0  0
   -7.0311   -1.1757    0.0000 O   0  0  0  0  0  0  0  0  0  0  0  0
   -2.0663    7.4918    0.0000 C   0  0  0  0  0  0  0  0  0  0  0  0
   -0.6960    8.1019    0.0000 C   0  0  0  0  0  0  0  0  0  0  0  0
  1  2  1  0
  2  3  2  0
  3  4  1  0
  4  5  2  0
  5  6  1  0
  6  7  2  0
  7  8  1  0
  8  9  2  0
  9 10  1  0
 10 11  1  0
 11 12  2  0
 12 13  1  0
 13 14  2  0
 14 15  1  0
 15 16  2  0
 16 17  1  0
 17 18  1  0
 18 19  2  0
 19 20  1  0
 20 21  2  0
 21 22  1  0
 22 23  1  0
 23 24  2  0
 24 25  1  0
 25 26  2  0
 26 27  1  0
 27 28  2  0
 27 29  1  0
 29 30  1  0
 30 31  2  0
 31 32  1  0
 32 33  2  0
 33 34  1  0
 34 35  1  0
 35 36  2  0
 36 37  1  0
 37 38  2  0
 38 39  1  0
 39 40  2  0
 40 41  1  0
 41 42  2  0
 42 43  1  0
 43 44  2  0
 38 45  1  0
 45 46  2  0
 26 47  1  0
 47 48  2  0
  5 49  1  0
 49 50  2  0
 50  2  1  0
 10  6  1  0
 16 11  1  0
 22 17  1  0
 47 23  1  0
 34 30  1  0
 45 35  1  0
 44 39  1  0
M  END
>  <Title>  (655) 
idAAZEgen8

$$$$

     RDKit          2D

 27 27  0  0  0  0  0  0  0  0999 V2000
    7.7222    0.0000    0.0000 O   0  0  0  0  0  0  0  0  0  0  0  0
    6.2222    0.0000    0.0000 C   0  0  0  0  0  0  0  0  0  0  0  0
    6.0414   -1.4891    0.0000 C   0  0  0  0  0  0  0  0  0  0  0  0
    5.5095   -2.8916    0.0000 C   0  0  0  0  0  0  0  0  0  0  0  0
    4.6574   -4.1261    0.0000 C   0  0  0  0  0  0  0  0  0  0  0  0
    3.5346   -5.1207    0.0000 C   0  0  0  0  0  0  0  0  0  0  0  0
    2.2064   -5.8178    0.0000 C   0  0  0  0  0  0  0  0  0  0  0  0
    0.7500   -6.1768    0.0000 C   0  0  0  0  0  0  0  0  0  0  0  0
   -0.7500   -6.1768    0.0000 C   0  0  0  0  0  0  0  0  0  0  0  0
   -2.2064   -5.8178    0.0000 C   0  0  0  0  0  0  0  0  0  0  0  0
   -3.5346   -5.1207    0.0000 C   0  0  0  0  0  0  0  0  0  0  0  0
   -4.6574   -4.1261    0.0000 C   0  0  0  0  0  0  0  0  0  0  0  0
   -5.5095   -2.8916    0.0000 C   0  0  0  0  0  0  0  0  0  0  0  0
   -6.0414   -1.4891    0.0000 C   0  0  0  0  0  0  0  0  0  0  0  0
   -6.2222    0.0000    0.0000 C   0  0  0  0  0  0  0  0  0  0  0  0
   -6.0414    1.4891    0.0000 C   0  0  0  0  0  0  0  0  0  0  0  0
   -5.5095    2.8916    0.0000 C   0  0  0  0  0  0  0  0  0  0  0  0
   -4.6574    4.1261    0.0000 C   0  0  0  0  0  0  0  0  0  0  0  0
   -3.5346    5.1207    0.0000 C   0  0  0  0  0  0  0  0  0  0  0  0
   -2.2064    5.8178    0.0000 C   0  0  0  0  0  0  0  0  0  0  0  0
   -0.7500    6.1768    0.0000 C   0  0  0  0  0  0  0  0  0  0  0  0
    0.7500    6.1768    0.0000 C   0  0  0  0  0  0  0  0  0  0  0  0
    2.2064    5.8178    0.0000 C   0  0  0  0  0  0  0  0  0  0  0  0
    3.5346    5.1207    0.0000 C   0  0  0  0  0  0  0  0  0  0  0  0
    4.6574    4.1261    0.0000 C   0  0  0  0  0  0  0  0  0  0  0  0
    5.5095    2.8916    0.0000 C   0  0  0  0  0  0  0  0  0  0  0  0
    6.0414    1.4891    0.0000 C   0  0  0  0  0  0  0  0  0  0  0  0
  1  2  1  0
  2  3  2  0
  3  4  1  0
  4  5  2  0
  5  6  1  0
  6  7  2  0
  7  8  1  0
  8  9  2  0
  9 10  1  0
 10 11  2  0
 11 12  1  0
 12 13  2  0
 13 14  1  0
 14 15  2  0
 15 16  1  0
 16 17  2  0
 17 18  1  0
 18 19  2  0
 19 20  1  0
 20 21  2  0
 21 22  1  0
 22 23  2  0
 23 24  1  0
 24 25  2  0
 25 26  1  0
 26 27  2  0
 27  2  1  0
M  END
>  <Title>  (656) 
idAAZFgen8

$$$$

     RDKit          2D

 54 62  0  0  0  0  0  0  0  0999 V2000
    6.7669    5.3593    0.0000 C   0  0  0  0  0  0  0  0  0  0  0  0
    5.4253    6.0302    0.0000 C   0  0  0  0  0  0  0  0  0  0  0  0
    4.2387    5.1126    0.0000 C   0  0  0  0  0  0  0  0  0  0  0  0
    2.7815    5.4683    0.0000 C   0  0  0  0  0  0  0  0  0  0  0  0
    2.1509    6.8293    0.0000 C   0  0  0  0  0  0  0  0  0  0  0  0
    0.6511    6.8517    0.0000 C   0  0  0  0  0  0  0  0  0  0  0  0
   -0.2123    8.0783    0.0000 N   0  0  0  0  0  0  0  0  0  0  0  0
   -1.6457    7.6362    0.0000 N   0  0  0  0  0  0  0  0  0  0  0  0
   -1.6681    6.1363    0.0000 N   0  0  0  0  0  0  0  0  0  0  0  0
   -0.2487    5.6515    0.0000 N   0  0  0  0  0  0  0  0  0  0  0  0
    0.1935    4.2182    0.0000 C   0  0  0  0  0  0  0  0  0  0  0  0
    1.6559    3.8844    0.0000 C   0  0  0  0  0  0  0  0  0  0  0  0
    2.0980    2.4510    0.0000 C   0  0  0  0  0  0  0  0  0  0  0  0
    1.0777    1.3515    0.0000 C   0  0  0  0  0  0  0  0  0  0  0  0
    1.7286    0.0000    0.0000 C   0  0  0  0  0  0  0  0  0  0  0  0
    1.0777   -1.3515    0.0000 N   0  0  0  0  0  0  0  0  0  0  0  0
   -0.3846   -1.6852    0.0000 N   0  0  0  0  0  0  0  0  0  0  0  0
   -1.5574   -0.7500    0.0000 N   0  0  0  0  0  0  0  0  0  0  0  0
   -1.5574    0.7500    0.0000 N   0  0  0  0  0  0  0  0  0  0  0  0
   -0.3846    1.6852    0.0000 C   0  0  0  0  0  0  0  0  0  0  0  0
   -0.8268    3.1186    0.0000 N   0  0  0  0  0  0  0  0  0  0  0  0
   -2.2892    3.4524    0.0000 N   0  0  0  0  0  0  0  0  0  0  0  0
   -2.7313    4.8857    0.0000 N   0  0  0  0  0  0  0  0  0  0  0  0
   -4.1937    5.2195    0.0000 N   0  0  0  0  0  0  0  0  0  0  0  0
   -5.2140    4.1199    0.0000 N   0  0  0  0  0  0  0  0  0  0  0  0
   -4.7718    2.6866    0.0000 N   0  0  0  0  0  0  0  0  0  0  0  0
   -3.3094    2.3528    0.0000 N   0  0  0  0  0  0  0  0  0  0  0  0
   -2.8673    0.9194    0.0000 C   0  0  0  0  0  0  0  0  0  0  0  0
   -1.4478    0.4346    0.0000 C   0  0  0  0  0  0  0  0  0  0  0  0
   -1.4702   -1.0652    0.0000 C   0  0  0  0  0  0  0  0  0  0  0  0
   -2.9036   -1.5073    0.0000 C   0  0  0  0  0  0  0  0  0  0  0  0
   -3.3884   -2.9268    0.0000 C   0  0  0  0  0  0  0  0  0  0  0  0
   -2.5250   -4.1534    0.0000 N   0  0  0  0  0  0  0  0  0  0  0  0
   -3.4247   -5.3536    0.0000 N   0  0  0  0  0  0  0  0  0  0  0  0
   -4.8442   -4.8688    0.0000 N   0  0  0  0  0  0  0  0  0  0  0  0
   -4.8218   -3.3690    0.0000 N   0  0  0  0  0  0  0  0  0  0  0  0
   -6.0220   -2.4692    0.0000 C   0  0  0  0  0  0  0  0  0  0  0  0
   -5.8429   -0.9800    0.0000 C   0  0  0  0  0  0  0  0  0  0  0  0
   -7.0431   -0.0802    0.0000 C   0  0  0  0  0  0  0  0  0  0  0  0
   -8.4224   -0.6698    0.0000 C   0  0  0  0  0  0  0  0  0  0  0  0
   -8.6015   -2.1590    0.0000 C   0  0  0  0  0  0  0  0  0  0  0  0
   -7.4013   -3.0588    0.0000 C   0  0  0  0  0  0  0  0  0  0  0  0
   -7.5804   -4.5480    0.0000 C   0  0  0  0  0  0  0  0  0  0  0  0
   -8.9597   -5.1376    0.0000 C   0  0  0  0  0  0  0  0  0  0  0  0
   -9.1387   -6.6268    0.0000 C   0  0  0  0  0  0  0  0  0  0  0  0
   -7.9385   -7.5266    0.0000 C   0  0  0  0  0  0  0  0  0  0  0  0
   -6.5593   -6.9370    0.0000 C   0  0  0  0  0  0  0  0  0  0  0  0
   -6.3802   -5.4478    0.0000 C   0  0  0  0  0  0  0  0  0  0  0  0
   -3.7670   -0.2808    0.0000 C   0  0  0  0  0  0  0  0  0  0  0  0
   -5.2669   -0.2583    0.0000 O   0  0  0  0  0  0  0  0  0  0  0  0
    2.8219    8.1709    0.0000 N   0  0  0  0  0  0  0  0  0  0  0  0
    4.2891    8.4827    0.0000 C   0  0  0  0  0  0  0  0  0  0  0  0
    4.6447    9.9400    0.0000 O   0  0  0  0  0  0  0  0  0  0  0  0
    5.4477    7.5301    0.0000 C   0  0  0  0  0  0  0  0  0  0  0  0
  1  2  1  0
  2  3  2  0
  3  4  1  0
  4  5  2  0
  5  6  1  0
  6  7  2  0
  7  8  1  0
  8  9  2  0
  9 10  1  0
 10 11  1  0
 11 12  2  0
 12 13  1  0
 13 14  2  0
 14 15  1  0
 15 16  2  0
 16 17  1  0
 17 18  2  0
 18 19  1  0
 19 20  2  0
 20 21  1  0
 21 22  1  0
 22 23  1  0
 23 24  2  0
 24 25  1  0
 25 26  2  0
 26 27  1  0
 27 28  1  0
 28 29  2  0
 29 30  1  0
 30 31  2  0
 31 32  1  0
 32 33  2  0
 33 34  1  0
 34 35  2  0
 35 36  1  0
 36 37  1  0
 37 38  2  0
 38 39  1  0
 39 40  2  0
 40 41  1  0
 41 42  2  0
 42 43  1  0
 43 44  2  0
 44 45  1  0
 45 46  2  0
 46 47  1  0
 47 48  2  0
 31 49  1  0
 49 50  2  0
  5 51  1  0
 51 52  1  0
 52 53  2  0
 52 54  1  0
 54  2  1  0
 10  6  1  0
 21 11  1  0
 27 22  1  0
 49 28  1  0
 20 14  1  0
 36 32  1  0
 42 37  1  0
 48 43  1  0
M  END
>  <Title>  (657) 
idAAZGgen8

$$$$

     RDKit          2D

 36 41  0  0  0  0  0  0  0  0999 V2000
    3.0000    0.0000    0.0000 C   0  0  0  0  0  0  0  0  0  0  0  0
    1.5000    0.0000    0.0000 C   0  0  0  0  0  0  0  0  0  0  0  0
    0.7500   -1.2990    0.0000 C   0  0  0  0  0  0  0  0  0  0  0  0
   -0.7500   -1.2990    0.0000 C   0  0  0  0  0  0  0  0  0  0  0  0
   -1.5000    0.0000    0.0000 C   0  0  0  0  0  0  0  0  0  0  0  0
   -3.0000    0.0000    0.0000 N   0  0  0  0  0  0  0  0  0  0  0  0
   -3.7500    1.2990    0.0000 C   0  0  0  0  0  0  0  0  0  0  0  0
   -5.2500    1.2990    0.0000 N   0  0  0  0  0  0  0  0  0  0  0  0
   -6.0000    0.0000    0.0000 N   0  0  0  0  0  0  0  0  0  0  0  0
   -5.2500   -1.2990    0.0000 N   0  0  0  0  0  0  0  0  0  0  0  0
   -3.7500   -1.2990    0.0000 N   0  0  0  0  0  0  0  0  0  0  0  0
   -3.0000   -2.5981    0.0000 C   0  0  0  0  0  0  0  0  0  0  0  0
   -1.5082   -2.7549    0.0000 C   0  0  0  0  0  0  0  0  0  0  0  0
   -1.1963   -4.2221    0.0000 C   0  0  0  0  0  0  0  0  0  0  0  0
   -2.4954   -4.9721    0.0000 C   0  0  0  0  0  0  0  0  0  0  0  0
   -2.6522   -6.4639    0.0000 C   0  0  0  0  0  0  0  0  0  0  0  0
   -1.5375   -7.4676    0.0000 N   0  0  0  0  0  0  0  0  0  0  0  0
   -2.1476   -8.8379    0.0000 N   0  0  0  0  0  0  0  0  0  0  0  0
   -3.6394   -8.6811    0.0000 N   0  0  0  0  0  0  0  0  0  0  0  0
   -3.9512   -7.2139    0.0000 N   0  0  0  0  0  0  0  0  0  0  0  0
   -5.3215   -6.6038    0.0000 C   0  0  0  0  0  0  0  0  0  0  0  0
   -5.6334   -5.1365    0.0000 N   0  0  0  0  0  0  0  0  0  0  0  0
   -7.1252   -4.9798    0.0000 N   0  0  0  0  0  0  0  0  0  0  0  0
   -7.7353   -6.3501    0.0000 N   0  0  0  0  0  0  0  0  0  0  0  0
   -6.6206   -7.3538    0.0000 N   0  0  0  0  0  0  0  0  0  0  0  0
   -6.7774   -8.8456    0.0000 C   0  0  0  0  0  0  0  0  0  0  0  0
   -8.1477   -9.4557    0.0000 C   0  0  0  0  0  0  0  0  0  0  0  0
   -8.3045  -10.9474    0.0000 C   0  0  0  0  0  0  0  0  0  0  0  0
   -7.0910  -11.8291    0.0000 C   0  0  0  0  0  0  0  0  0  0  0  0
   -5.7206  -11.2190    0.0000 C   0  0  0  0  0  0  0  0  0  0  0  0
   -5.5638   -9.7272    0.0000 C   0  0  0  0  0  0  0  0  0  0  0  0
   -3.6101   -3.9684    0.0000 C   0  0  0  0  0  0  0  0  0  0  0  0
   -5.0773   -4.2803    0.0000 O   0  0  0  0  0  0  0  0  0  0  0  0
   -0.7500    1.2990    0.0000 C   0  0  0  0  0  0  0  0  0  0  0  0
   -1.5000    2.5981    0.0000 O   0  0  0  0  0  0  0  0  0  0  0  0
    0.7500    1.2990    0.0000 N   0  0  0  0  0  0  0  0  0  0  0  0
  1  2  1  0
  2  3  2  0
  3  4  1  0
  4  5  2  0
  5  6  1  0
  6  7  1  0
  7  8  2  0
  8  9  1  0
  9 10  2  0
 10 11  1  0
 11 12  1  0
 12 13  2  0
 13 14  1  0
 14 15  2  0
 15 16  1  0
 16 17  2  0
 17 18  1  0
 18 19  2  0
 19 20  1  0
 20 21  1  0
 21 22  2  0
 22 23  1  0
 23 24  2  0
 24 25  1  0
 25 26  1  0
 26 27  2  0
 27 28  1  0
 28 29  2  0
 29 30  1  0
 30 31  2  0
 15 32  1  0
 32 33  2  0
  5 34  1  0
 34 35  2  0
 34 36  1  0
 36  2  1  0
 11  6  1  0
 32 12  1  0
 20 16  1  0
 25 21  1  0
 31 26  1  0
M  END
>  <Title>  (658) 
idAAZHgen8

$$$$

     RDKit          2D

 32 36  0  0  0  0  0  0  0  0999 V2000
    3.0000    0.0000    0.0000 C   0  0  0  0  0  0  0  0  0  0  0  0
    1.5000    0.0000    0.0000 C   0  0  0  0  0  0  0  0  0  0  0  0
    0.7500   -1.2990    0.0000 C   0  0  0  0  0  0  0  0  0  0  0  0
   -0.7500   -1.2990    0.0000 C   0  0  0  0  0  0  0  0  0  0  0  0
   -1.5000    0.0000    0.0000 C   0  0  0  0  0  0  0  0  0  0  0  0
   -3.0000    0.0000    0.0000 C   0  0  0  0  0  0  0  0  0  0  0  0
   -3.7500   -1.2990    0.0000 O   0  0  0  0  0  0  0  0  0  0  0  0
   -3.7500    1.2990    0.0000 N   0  0  0  0  0  0  0  0  0  0  0  0
   -5.2500    1.2990    0.0000 C   0  0  0  0  0  0  0  0  0  0  0  0
   -6.1317    0.0855    0.0000 N   0  0  0  0  0  0  0  0  0  0  0  0
   -7.5583    0.5490    0.0000 N   0  0  0  0  0  0  0  0  0  0  0  0
   -7.5583    2.0490    0.0000 N   0  0  0  0  0  0  0  0  0  0  0  0
   -6.1317    2.5126    0.0000 N   0  0  0  0  0  0  0  0  0  0  0  0
   -5.6682    3.9391    0.0000 C   0  0  0  0  0  0  0  0  0  0  0  0
   -6.5498    5.1527    0.0000 C   0  0  0  0  0  0  0  0  0  0  0  0
   -5.6682    6.3662    0.0000 C   0  0  0  0  0  0  0  0  0  0  0  0
   -4.2416    5.9027    0.0000 C   0  0  0  0  0  0  0  0  0  0  0  0
   -3.0280    6.7844    0.0000 C   0  0  0  0  0  0  0  0  0  0  0  0
   -3.0280    8.2844    0.0000 N   0  0  0  0  0  0  0  0  0  0  0  0
   -1.6015    8.7479    0.0000 N   0  0  0  0  0  0  0  0  0  0  0  0
   -0.7198    7.5344    0.0000 N   0  0  0  0  0  0  0  0  0  0  0  0
   -1.6015    6.3208    0.0000 N   0  0  0  0  0  0  0  0  0  0  0  0
   -1.1379    4.8942    0.0000 C   0  0  0  0  0  0  0  0  0  0  0  0
    0.2887    4.4307    0.0000 N   0  0  0  0  0  0  0  0  0  0  0  0
    0.2887    2.9307    0.0000 N   0  0  0  0  0  0  0  0  0  0  0  0
   -1.1379    2.4672    0.0000 N   0  0  0  0  0  0  0  0  0  0  0  0
   -2.0196    3.6807    0.0000 N   0  0  0  0  0  0  0  0  0  0  0  0
   -4.2416    4.4027    0.0000 C   0  0  0  0  0  0  0  0  0  0  0  0
   -3.0280    3.5210    0.0000 O   0  0  0  0  0  0  0  0  0  0  0  0
   -0.7500    1.2990    0.0000 N   0  0  0  0  0  0  0  0  0  0  0  0
    0.7500    1.2990    0.0000 C   0  0  0  0  0  0  0  0  0  0  0  0
    1.5000    2.5981    0.0000 O   0  0  0  0  0  0  0  0  0  0  0  0
  1  2  1  0
  2  3  2  0
  3  4  1  0
  4  5  2  0
  5  6  1  0
  6  7  2  0
  6  8  1  0
  8  9  1  0
  9 10  2  0
 10 11  1  0
 11 12  2  0
 12 13  1  0
 13 14  1  0
 14 15  2  0
 15 16  1  0
 16 17  2  0
 17 18  1  0
 18 19  2  0
 19 20  1  0
 20 21  2  0
 21 22  1  0
 22 23  1  0
 23 24  2  0
 24 25  1  0
 25 26  2  0
 26 27  1  0
 17 28  1  0
 28 29  2  0
  5 30  1  0
 30 31  1  0
 31 32  2  0
 31  2  1  0
 13  9  1  0
 28 14  1  0
 22 18  1  0
 27 23  1  0
M  END
>  <Title>  (659) 
idAAZIgen8

$$$$

     RDKit          2D

 12 13  0  0  0  0  0  0  0  0999 V2000
   -0.6071    6.1530    0.0000 C   0  0  0  0  0  0  0  0  0  0  0  0
   -0.7248    4.6576    0.0000 C   0  0  0  0  0  0  0  0  0  0  0  0
    0.6118    3.9766    0.0000 C   0  0  0  0  0  0  0  0  0  0  0  0
    1.0753    2.5500    0.0000 C   0  0  0  0  0  0  0  0  0  0  0  0
    0.3943    1.2135    0.0000 C   0  0  0  0  0  0  0  0  0  0  0  0
    1.2760    0.0000    0.0000 C   0  0  0  0  0  0  0  0  0  0  0  0
    0.3943   -1.2135    0.0000 C   0  0  0  0  0  0  0  0  0  0  0  0
   -1.0323   -0.7500    0.0000 C   0  0  0  0  0  0  0  0  0  0  0  0
   -1.0323    0.7500    0.0000 C   0  0  0  0  0  0  0  0  0  0  0  0
   -2.3688    1.4310    0.0000 C   0  0  0  0  0  0  0  0  0  0  0  0
   -2.8323    2.8576    0.0000 C   0  0  0  0  0  0  0  0  0  0  0  0
   -2.1513    4.1941    0.0000 N   0  0  0  0  0  0  0  0  0  0  0  0
  1  2  1  0
  2  3  2  0
  3  4  1  0
  4  5  2  0
  5  6  1  0
  6  7  2  0
  7  8  1  0
  8  9  2  0
  9 10  1  0
 10 11  2  0
 11 12  1  0
 12  2  1  0
  9  5  1  0
M  END
>  <Title>  (660) 
idAAZJgen8

$$$$

     RDKit          2D

 46 52  0  0  0  0  0  0  0  0999 V2000
    3.0000    0.0000    0.0000 C   0  0  0  0  0  0  0  0  0  0  0  0
    1.5000    0.0000    0.0000 C   0  0  0  0  0  0  0  0  0  0  0  0
    0.7500   -1.2990    0.0000 C   0  0  0  0  0  0  0  0  0  0  0  0
   -0.7500   -1.2990    0.0000 C   0  0  0  0  0  0  0  0  0  0  0  0
   -1.5000    0.0000    0.0000 C   0  0  0  0  0  0  0  0  0  0  0  0
   -3.0000    0.0000    0.0000 C   0  0  0  0  0  0  0  0  0  0  0  0
   -3.7500    1.2990    0.0000 C   0  0  0  0  0  0  0  0  0  0  0  0
   -5.2500    1.2990    0.0000 C   0  0  0  0  0  0  0  0  0  0  0  0
   -6.0000    2.5981    0.0000 C   0  0  0  0  0  0  0  0  0  0  0  0
   -7.5000    2.5981    0.0000 O   0  0  0  0  0  0  0  0  0  0  0  0
   -5.2500    3.8971    0.0000 N   0  0  0  0  0  0  0  0  0  0  0  0
   -6.0000    5.1962    0.0000 C   0  0  0  0  0  0  0  0  0  0  0  0
   -7.4918    5.3529    0.0000 N   0  0  0  0  0  0  0  0  0  0  0  0
   -7.8037    6.8202    0.0000 N   0  0  0  0  0  0  0  0  0  0  0  0
   -6.5046    7.5702    0.0000 N   0  0  0  0  0  0  0  0  0  0  0  0
   -5.3899    6.5665    0.0000 N   0  0  0  0  0  0  0  0  0  0  0  0
   -3.9227    6.8783    0.0000 C   0  0  0  0  0  0  0  0  0  0  0  0
   -2.9190    5.7636    0.0000 C   0  0  0  0  0  0  0  0  0  0  0  0
   -1.4518    6.0755    0.0000 C   0  0  0  0  0  0  0  0  0  0  0  0
   -0.9882    7.5021    0.0000 N   0  0  0  0  0  0  0  0  0  0  0  0
   -1.9919    8.6168    0.0000 N   0  0  0  0  0  0  0  0  0  0  0  0
   -3.4591    8.3049    0.0000 C   0  0  0  0  0  0  0  0  0  0  0  0
   -4.4628    9.4196    0.0000 C   0  0  0  0  0  0  0  0  0  0  0  0
   -3.9993   10.8462    0.0000 C   0  0  0  0  0  0  0  0  0  0  0  0
   -5.0030   11.9609    0.0000 C   0  0  0  0  0  0  0  0  0  0  0  0
   -6.4702   11.6491    0.0000 C   0  0  0  0  0  0  0  0  0  0  0  0
   -6.9338   10.2225    0.0000 C   0  0  0  0  0  0  0  0  0  0  0  0
   -5.9301    9.1078    0.0000 C   0  0  0  0  0  0  0  0  0  0  0  0
   -6.0000    0.0000    0.0000 C   0  0  0  0  0  0  0  0  0  0  0  0
   -5.2500   -1.2990    0.0000 C   0  0  0  0  0  0  0  0  0  0  0  0
   -3.7500   -1.2990    0.0000 C   0  0  0  0  0  0  0  0  0  0  0  0
   -3.0000   -2.5981    0.0000 N   0  0  0  0  0  0  0  0  0  0  0  0
   -1.5082   -2.7549    0.0000 N   0  0  0  0  0  0  0  0  0  0  0  0
   -1.1963   -4.2221    0.0000 N   0  0  0  0  0  0  0  0  0  0  0  0
   -2.4954   -4.9721    0.0000 N   0  0  0  0  0  0  0  0  0  0  0  0
   -3.6101   -3.9684    0.0000 C   0  0  0  0  0  0  0  0  0  0  0  0
   -5.0773   -4.2803    0.0000 C   0  0  0  0  0  0  0  0  0  0  0  0
   -6.0810   -3.1655    0.0000 C   0  0  0  0  0  0  0  0  0  0  0  0
   -7.5482   -3.4774    0.0000 C   0  0  0  0  0  0  0  0  0  0  0  0
   -8.0118   -4.9040    0.0000 C   0  0  0  0  0  0  0  0  0  0  0  0
   -9.4790   -5.2159    0.0000 C   0  0  0  0  0  0  0  0  0  0  0  0
   -7.0081   -6.0187    0.0000 N   0  0  0  0  0  0  0  0  0  0  0  0
   -5.5409   -5.7068    0.0000 C   0  0  0  0  0  0  0  0  0  0  0  0
   -4.5372   -6.8216    0.0000 O   0  0  0  0  0  0  0  0  0  0  0  0
   -0.7500    1.2990    0.0000 C   0  0  0  0  0  0  0  0  0  0  0  0
    0.7500    1.2990    0.0000 C   0  0  0  0  0  0  0  0  0  0  0  0
  1  2  1  0
  2  3  2  0
  3  4  1  0
  4  5  2  0
  5  6  1  0
  6  7  2  0
  7  8  1  0
  8  9  1  0
  9 10  2  0
  9 11  1  0
 11 12  1  0
 12 13  2  0
 13 14  1  0
 14 15  2  0
 15 16  1  0
 16 17  1  0
 17 18  2  0
 18 19  1  0
 19 20  2  0
 20 21  1  0
 21 22  2  0
 22 23  1  0
 23 24  2  0
 24 25  1  0
 25 26  2  0
 26 27  1  0
 27 28  2  0
  8 29  2  0
 29 30  1  0
 30 31  2  0
 31 32  1  0
 32 33  1  0
 33 34  2  0
 34 35  1  0
 35 36  2  0
 36 37  1  0
 37 38  2  0
 38 39  1  0
 39 40  2  0
 40 41  1  0
 40 42  1  0
 42 43  1  0
 43 44  2  0
  5 45  1  0
 45 46  2  0
 46  2  1  0
 31  6  1  0
 36 32  1  0
 43 37  1  0
 16 12  1  0
 22 17  1  0
 28 23  1  0
M  END
>  <Title>  (661) 
idAAZKgen8

$$$$

     RDKit          2D

 35 40  0  0  0  0  0  0  0  0999 V2000
   -8.9519    8.6915    0.0000 C   0  0  0  0  0  0  0  0  0  0  0  0
   -7.7384    7.8099    0.0000 C   0  0  0  0  0  0  0  0  0  0  0  0
   -6.3681    8.4200    0.0000 C   0  0  0  0  0  0  0  0  0  0  0  0
   -5.1546    7.5383    0.0000 C   0  0  0  0  0  0  0  0  0  0  0  0
   -5.3113    6.0465    0.0000 C   0  0  0  0  0  0  0  0  0  0  0  0
   -4.0978    5.1648    0.0000 C   0  0  0  0  0  0  0  0  0  0  0  0
   -4.2546    3.6731    0.0000 C   0  0  0  0  0  0  0  0  0  0  0  0
   -5.5537    2.9231    0.0000 N   0  0  0  0  0  0  0  0  0  0  0  0
   -5.2418    1.4558    0.0000 N   0  0  0  0  0  0  0  0  0  0  0  0
   -3.7500    1.2990    0.0000 N   0  0  0  0  0  0  0  0  0  0  0  0
   -3.1399    2.6694    0.0000 N   0  0  0  0  0  0  0  0  0  0  0  0
   -1.6727    2.9812    0.0000 C   0  0  0  0  0  0  0  0  0  0  0  0
   -1.0626    4.3515    0.0000 N   0  0  0  0  0  0  0  0  0  0  0  0
    0.4292    4.1947    0.0000 N   0  0  0  0  0  0  0  0  0  0  0  0
    0.7411    2.7275    0.0000 N   0  0  0  0  0  0  0  0  0  0  0  0
   -0.5580    1.9775    0.0000 N   0  0  0  0  0  0  0  0  0  0  0  0
   -0.7147    0.4857    0.0000 C   0  0  0  0  0  0  0  0  0  0  0  0
    0.4988   -0.3959    0.0000 C   0  0  0  0  0  0  0  0  0  0  0  0
    0.3420   -1.8877    0.0000 C   0  0  0  0  0  0  0  0  0  0  0  0
   -1.0283   -2.4978    0.0000 C   0  0  0  0  0  0  0  0  0  0  0  0
   -1.1851   -3.9896    0.0000 C   0  0  0  0  0  0  0  0  0  0  0  0
   -2.4842   -4.7396    0.0000 N   0  0  0  0  0  0  0  0  0  0  0  0
   -2.1723   -6.2068    0.0000 N   0  0  0  0  0  0  0  0  0  0  0  0
   -0.6805   -6.3636    0.0000 N   0  0  0  0  0  0  0  0  0  0  0  0
   -0.0704   -4.9933    0.0000 N   0  0  0  0  0  0  0  0  0  0  0  0
    1.3968   -4.6814    0.0000 C   0  0  0  0  0  0  0  0  0  0  0  0
    1.8603   -3.2548    0.0000 C   0  0  0  0  0  0  0  0  0  0  0  0
    3.3276   -2.9430    0.0000 C   0  0  0  0  0  0  0  0  0  0  0  0
    4.3313   -4.0577    0.0000 C   0  0  0  0  0  0  0  0  0  0  0  0
    3.8677   -5.4843    0.0000 C   0  0  0  0  0  0  0  0  0  0  0  0
    2.4005   -5.7961    0.0000 C   0  0  0  0  0  0  0  0  0  0  0  0
   -2.2419   -1.6161    0.0000 C   0  0  0  0  0  0  0  0  0  0  0  0
   -2.0851   -0.1244    0.0000 C   0  0  0  0  0  0  0  0  0  0  0  0
   -6.6817    5.4364    0.0000 C   0  0  0  0  0  0  0  0  0  0  0  0
   -7.8952    6.3181    0.0000 C   0  0  0  0  0  0  0  0  0  0  0  0
  1  2  1  0
  2  3  2  0
  3  4  1  0
  4  5  2  0
  5  6  1  0
  6  7  1  0
  7  8  2  0
  8  9  1  0
  9 10  2  0
 10 11  1  0
 11 12  1  0
 12 13  2  0
 13 14  1  0
 14 15  2  0
 15 16  1  0
 16 17  1  0
 17 18  2  0
 18 19  1  0
 19 20  2  0
 20 21  1  0
 21 22  2  0
 22 23  1  0
 23 24  2  0
 24 25  1  0
 25 26  1  0
 26 27  2  0
 27 28  1  0
 28 29  2  0
 29 30  1  0
 30 31  2  0
 20 32  1  0
 32 33  2  0
  5 34  1  0
 34 35  2  0
 35  2  1  0
 11  7  1  0
 16 12  1  0
 33 17  1  0
 25 21  1  0
 31 26  1  0
M  END
>  <Title>  (662) 
idAAZLgen8

$$$$

     RDKit          2D

 13 14  0  0  0  0  0  0  0  0999 V2000
    0.4276    6.3655    0.0000 C   0  0  0  0  0  0  0  0  0  0  0  0
   -0.1343    4.9747    0.0000 C   0  0  0  0  0  0  0  0  0  0  0  0
    0.9804    3.9710    0.0000 C   0  0  0  0  0  0  0  0  0  0  0  0
    1.1892    2.4856    0.0000 C   0  0  0  0  0  0  0  0  0  0  0  0
    0.3943    1.2135    0.0000 C   0  0  0  0  0  0  0  0  0  0  0  0
    1.2760    0.0000    0.0000 C   0  0  0  0  0  0  0  0  0  0  0  0
    0.3943   -1.2135    0.0000 C   0  0  0  0  0  0  0  0  0  0  0  0
   -1.0323   -0.7500    0.0000 C   0  0  0  0  0  0  0  0  0  0  0  0
   -1.0323    0.7500    0.0000 C   0  0  0  0  0  0  0  0  0  0  0  0
   -2.4231    1.3119    0.0000 N   0  0  0  0  0  0  0  0  0  0  0  0
   -3.1273    2.6363    0.0000 C   0  0  0  0  0  0  0  0  0  0  0  0
   -2.8154    4.1036    0.0000 C   0  0  0  0  0  0  0  0  0  0  0  0
   -1.6334    5.0270    0.0000 C   0  0  0  0  0  0  0  0  0  0  0  0
  1  2  1  0
  2  3  2  0
  3  4  1  0
  4  5  2  0
  5  6  1  0
  6  7  2  0
  7  8  1  0
  8  9  2  0
  9 10  1  0
 10 11  1  0
 11 12  1  0
 12 13  1  0
 13  2  1  0
  9  5  1  0
M  END
>  <Title>  (663) 
idAAZMgen8

$$$$

     RDKit          2D

 51 58  0  0  0  0  0  0  0  0999 V2000
   -6.5247    3.6259    0.0000 O   0  0  0  0  0  0  0  0  0  0  0  0
   -5.5420    4.7592    0.0000 C   0  0  0  0  0  0  0  0  0  0  0  0
   -5.8812    6.2203    0.0000 C   0  0  0  0  0  0  0  0  0  0  0  0
   -7.2627    6.8047    0.0000 C   0  0  0  0  0  0  0  0  0  0  0  0
   -7.6020    8.2658    0.0000 N   0  0  0  0  0  0  0  0  0  0  0  0
   -9.0964    8.3947    0.0000 N   0  0  0  0  0  0  0  0  0  0  0  0
   -9.6808    7.0132    0.0000 N   0  0  0  0  0  0  0  0  0  0  0  0
   -8.5475    6.0305    0.0000 N   0  0  0  0  0  0  0  0  0  0  0  0
   -8.6764    4.5361    0.0000 C   0  0  0  0  0  0  0  0  0  0  0  0
   -7.5431    3.5534    0.0000 N   0  0  0  0  0  0  0  0  0  0  0  0
   -8.1275    2.1719    0.0000 N   0  0  0  0  0  0  0  0  0  0  0  0
   -9.6219    2.3008    0.0000 N   0  0  0  0  0  0  0  0  0  0  0  0
   -9.9612    3.7619    0.0000 N   0  0  0  0  0  0  0  0  0  0  0  0
  -11.3427    4.3463    0.0000 C   0  0  0  0  0  0  0  0  0  0  0  0
  -11.5273    5.8349    0.0000 C   0  0  0  0  0  0  0  0  0  0  0  0
  -12.9088    6.4192    0.0000 C   0  0  0  0  0  0  0  0  0  0  0  0
  -14.1056    5.5150    0.0000 C   0  0  0  0  0  0  0  0  0  0  0  0
  -13.9210    4.0264    0.0000 C   0  0  0  0  0  0  0  0  0  0  0  0
  -12.5395    3.4421    0.0000 C   0  0  0  0  0  0  0  0  0  0  0  0
   -4.5964    6.9945    0.0000 C   0  0  0  0  0  0  0  0  0  0  0  0
   -3.4632    6.0118    0.0000 C   0  0  0  0  0  0  0  0  0  0  0  0
   -4.0475    4.6303    0.0000 C   0  0  0  0  0  0  0  0  0  0  0  0
   -3.2734    3.3455    0.0000 N   0  0  0  0  0  0  0  0  0  0  0  0
   -3.9989    2.0327    0.0000 N   0  0  0  0  0  0  0  0  0  0  0  0
   -3.2248    0.7479    0.0000 N   0  0  0  0  0  0  0  0  0  0  0  0
   -1.7251    0.7759    0.0000 N   0  0  0  0  0  0  0  0  0  0  0  0
   -0.9995    2.0888    0.0000 N   0  0  0  0  0  0  0  0  0  0  0  0
   -1.7736    3.3736    0.0000 N   0  0  0  0  0  0  0  0  0  0  0  0
   -1.0481    4.6864    0.0000 N   0  0  0  0  0  0  0  0  0  0  0  0
   -1.9161    5.9097    0.0000 N   0  0  0  0  0  0  0  0  0  0  0  0
   -1.5008    7.3511    0.0000 N   0  0  0  0  0  0  0  0  0  0  0  0
   -0.1150    7.9251    0.0000 N   0  0  0  0  0  0  0  0  0  0  0  0
    1.1978    7.1996    0.0000 C   0  0  0  0  0  0  0  0  0  0  0  0
    1.4491    5.7208    0.0000 C   0  0  0  0  0  0  0  0  0  0  0  0
    0.4496    4.6023    0.0000 C   0  0  0  0  0  0  0  0  0  0  0  0
    1.0236    3.2165    0.0000 C   0  0  0  0  0  0  0  0  0  0  0  0
   -0.1170    2.2423    0.0000 C   0  0  0  0  0  0  0  0  0  0  0  0
   -0.4672    0.7837    0.0000 C   0  0  0  0  0  0  0  0  0  0  0  0
    0.1069   -0.6021    0.0000 C   0  0  0  0  0  0  0  0  0  0  0  0
   -1.0337   -1.5762    0.0000 C   0  0  0  0  0  0  0  0  0  0  0  0
   -0.7604   -3.0511    0.0000 O   0  0  0  0  0  0  0  0  0  0  0  0
    1.3858   -1.3858    0.0000 C   0  0  0  0  0  0  0  0  0  0  0  0
    2.8812   -1.2681    0.0000 C   0  0  0  0  0  0  0  0  0  0  0  0
    4.0218   -0.2940    0.0000 C   0  0  0  0  0  0  0  0  0  0  0  0
    2.6360    0.2801    0.0000 C   0  0  0  0  0  0  0  0  0  0  0  0
    2.0620    1.6659    0.0000 C   0  0  0  0  0  0  0  0  0  0  0  0
    2.6360    3.0517    0.0000 C   0  0  0  0  0  0  0  0  0  0  0  0
    4.0218    3.6257    0.0000 C   0  0  0  0  0  0  0  0  0  0  0  0
    5.4076    3.0517    0.0000 C   0  0  0  0  0  0  0  0  0  0  0  0
    5.9816    1.6659    0.0000 C   0  0  0  0  0  0  0  0  0  0  0  0
    5.4076    0.2801    0.0000 C   0  0  0  0  0  0  0  0  0  0  0  0
  1  2  2  0
  2  3  1  0
  3  4  1  0
  4  5  2  0
  5  6  1  0
  6  7  2  0
  7  8  1  0
  8  9  1  0
  9 10  2  0
 10 11  1  0
 11 12  2  0
 12 13  1  0
 13 14  1  0
 14 15  2  0
 15 16  1  0
 16 17  2  0
 17 18  1  0
 18 19  2  0
  3 20  2  0
 20 21  1  0
 21 22  2  0
 22 23  1  0
 23 24  1  0
 24 25  2  0
 25 26  1  0
 26 27  2  0
 27 28  1  0
 28 29  1  0
 29 30  1  0
 30 31  2  0
 31 32  1  0
 32 33  2  0
 33 34  1  0
 34 35  2  0
 35 36  1  0
 36 37  2  0
 37 38  1  0
 38 39  2  0
 39 40  1  0
 40 41  1  0
 39 42  1  0
 42 43  2  0
 43 44  1  0
 44 45  2  0
 45 46  1  0
 46 47  2  0
 47 48  1  0
 48 49  2  0
 49 50  1  0
 50 51  2  0
 22  2  1  0
 28 23  1  0
 35 29  1  0
 47 36  1  0
  8  4  1  0
 13  9  1  0
 19 14  1  0
 51 44  1  0
M  END
>  <Title>  (664) 
idAAZNgen8

$$$$

     RDKit          2D

 47 54  0  0  0  0  0  0  0  0999 V2000
   -4.8274   10.7735    0.0000 C   0  0  0  0  0  0  0  0  0  0  0  0
   -5.2909    9.3469    0.0000 C   0  0  0  0  0  0  0  0  0  0  0  0
   -4.2872    8.2322    0.0000 C   0  0  0  0  0  0  0  0  0  0  0  0
   -4.7508    6.8056    0.0000 C   0  0  0  0  0  0  0  0  0  0  0  0
   -6.2180    6.4937    0.0000 C   0  0  0  0  0  0  0  0  0  0  0  0
   -6.6815    5.0672    0.0000 C   0  0  0  0  0  0  0  0  0  0  0  0
   -8.1081    4.6036    0.0000 N   0  0  0  0  0  0  0  0  0  0  0  0
   -8.1081    3.1036    0.0000 N   0  0  0  0  0  0  0  0  0  0  0  0
   -6.6815    2.6401    0.0000 N   0  0  0  0  0  0  0  0  0  0  0  0
   -5.7998    3.8536    0.0000 N   0  0  0  0  0  0  0  0  0  0  0  0
   -4.2998    3.8536    0.0000 C   0  0  0  0  0  0  0  0  0  0  0  0
   -3.4182    2.6401    0.0000 C   0  0  0  0  0  0  0  0  0  0  0  0
   -1.9916    3.1036    0.0000 C   0  0  0  0  0  0  0  0  0  0  0  0
   -1.9916    4.6036    0.0000 C   0  0  0  0  0  0  0  0  0  0  0  0
   -0.7780    5.4853    0.0000 C   0  0  0  0  0  0  0  0  0  0  0  0
   -0.7780    6.9853    0.0000 N   0  0  0  0  0  0  0  0  0  0  0  0
    0.6485    7.4488    0.0000 N   0  0  0  0  0  0  0  0  0  0  0  0
    1.5302    6.2353    0.0000 N   0  0  0  0  0  0  0  0  0  0  0  0
    0.6485    5.0218    0.0000 N   0  0  0  0  0  0  0  0  0  0  0  0
    1.1121    3.5952    0.0000 C   0  0  0  0  0  0  0  0  0  0  0  0
    0.2304    2.3817    0.0000 C   0  0  0  0  0  0  0  0  0  0  0  0
    1.1121    1.1682    0.0000 N   0  0  0  0  0  0  0  0  0  0  0  0
    2.5387    1.6317    0.0000 N   0  0  0  0  0  0  0  0  0  0  0  0
    2.5387    3.1317    0.0000 N   0  0  0  0  0  0  0  0  0  0  0  0
    3.7522    4.0134    0.0000 C   0  0  0  0  0  0  0  0  0  0  0  0
    3.5954    5.5051    0.0000 C   0  0  0  0  0  0  0  0  0  0  0  0
    4.8089    6.3868    0.0000 C   0  0  0  0  0  0  0  0  0  0  0  0
    6.1792    5.7767    0.0000 C   0  0  0  0  0  0  0  0  0  0  0  0
    7.3928    6.6584    0.0000 C   0  0  0  0  0  0  0  0  0  0  0  0
    7.2360    8.1502    0.0000 C   0  0  0  0  0  0  0  0  0  0  0  0
    8.4495    9.0319    0.0000 C   0  0  0  0  0  0  0  0  0  0  0  0
    9.8198    8.4217    0.0000 C   0  0  0  0  0  0  0  0  0  0  0  0
    9.9766    6.9300    0.0000 C   0  0  0  0  0  0  0  0  0  0  0  0
    8.7631    6.0483    0.0000 C   0  0  0  0  0  0  0  0  0  0  0  0
    6.3360    4.2849    0.0000 C   0  0  0  0  0  0  0  0  0  0  0  0
    5.1225    3.4033    0.0000 C   0  0  0  0  0  0  0  0  0  0  0  0
    5.2793    1.9115    0.0000 C   0  0  0  0  0  0  0  0  0  0  0  0
    6.6496    1.3014    0.0000 C   0  0  0  0  0  0  0  0  0  0  0  0
    6.8064   -0.1904    0.0000 C   0  0  0  0  0  0  0  0  0  0  0  0
    5.5929   -1.0721    0.0000 C   0  0  0  0  0  0  0  0  0  0  0  0
    4.2226   -0.4620    0.0000 C   0  0  0  0  0  0  0  0  0  0  0  0
    4.0658    1.0298    0.0000 C   0  0  0  0  0  0  0  0  0  0  0  0
   -3.4182    5.0672    0.0000 C   0  0  0  0  0  0  0  0  0  0  0  0
   -3.8817    6.4937    0.0000 O   0  0  0  0  0  0  0  0  0  0  0  0
   -7.2217    7.6085    0.0000 C   0  0  0  0  0  0  0  0  0  0  0  0
   -8.6889    7.2966    0.0000 O   0  0  0  0  0  0  0  0  0  0  0  0
   -6.7582    9.0350    0.0000 N   0  0  0  0  0  0  0  0  0  0  0  0
  1  2  1  0
  2  3  2  0
  3  4  1  0
  4  5  2  0
  5  6  1  0
  6  7  2  0
  7  8  1  0
  8  9  2  0
  9 10  1  0
 10 11  1  0
 11 12  2  0
 12 13  1  0
 13 14  2  0
 14 15  1  0
 15 16  2  0
 16 17  1  0
 17 18  2  0
 18 19  1  0
 19 20  1  0
 20 21  2  0
 21 22  1  0
 22 23  2  0
 23 24  1  0
 24 25  1  0
 25 26  2  0
 26 27  1  0
 27 28  2  0
 28 29  1  0
 29 30  2  0
 30 31  1  0
 31 32  2  0
 32 33  1  0
 33 34  2  0
 28 35  1  0
 35 36  2  0
 36 37  1  0
 37 38  2  0
 38 39  1  0
 39 40  2  0
 40 41  1  0
 41 42  2  0
 14 43  1  0
 43 44  2  0
  5 45  1  0
 45 46  2  0
 45 47  1  0
 47  2  1  0
 10  6  1  0
 43 11  1  0
 19 15  1  0
 24 20  1  0
 36 25  1  0
 42 37  1  0
 34 29  1  0
M  END
>  <Title>  (665) 
idAAZOgen8

$$$$

     RDKit          2D

 34 38  0  0  0  0  0  0  0  0999 V2000
    3.7500   -1.2990    0.0000 C   0  0  0  0  0  0  0  0  0  0  0  0
    3.0000    0.0000    0.0000 O   0  0  0  0  0  0  0  0  0  0  0  0
    1.5000    0.0000    0.0000 C   0  0  0  0  0  0  0  0  0  0  0  0
    0.7500   -1.2990    0.0000 C   0  0  0  0  0  0  0  0  0  0  0  0
   -0.7500   -1.2990    0.0000 C   0  0  0  0  0  0  0  0  0  0  0  0
   -1.5000    0.0000    0.0000 C   0  0  0  0  0  0  0  0  0  0  0  0
   -3.0000    0.0000    0.0000 C   0  0  0  0  0  0  0  0  0  0  0  0
   -3.8817   -1.2135    0.0000 N   0  0  0  0  0  0  0  0  0  0  0  0
   -5.3083   -0.7500    0.0000 N   0  0  0  0  0  0  0  0  0  0  0  0
   -5.3083    0.7500    0.0000 N   0  0  0  0  0  0  0  0  0  0  0  0
   -3.8817    1.2135    0.0000 N   0  0  0  0  0  0  0  0  0  0  0  0
   -3.4182    2.6401    0.0000 C   0  0  0  0  0  0  0  0  0  0  0  0
   -4.2998    3.8536    0.0000 C   0  0  0  0  0  0  0  0  0  0  0  0
   -3.4182    5.0672    0.0000 C   0  0  0  0  0  0  0  0  0  0  0  0
   -1.9916    4.6036    0.0000 C   0  0  0  0  0  0  0  0  0  0  0  0
   -0.7780    5.4853    0.0000 C   0  0  0  0  0  0  0  0  0  0  0  0
    0.5923    4.8752    0.0000 O   0  0  0  0  0  0  0  0  0  0  0  0
   -0.9348    6.9771    0.0000 N   0  0  0  0  0  0  0  0  0  0  0  0
    0.2787    7.8588    0.0000 C   0  0  0  0  0  0  0  0  0  0  0  0
    1.7053    7.3952    0.0000 N   0  0  0  0  0  0  0  0  0  0  0  0
    2.5870    8.6088    0.0000 N   0  0  0  0  0  0  0  0  0  0  0  0
    1.7053    9.8223    0.0000 N   0  0  0  0  0  0  0  0  0  0  0  0
    0.2787    9.3588    0.0000 N   0  0  0  0  0  0  0  0  0  0  0  0
   -0.9348   10.2405    0.0000 C   0  0  0  0  0  0  0  0  0  0  0  0
   -2.3052    9.6303    0.0000 C   0  0  0  0  0  0  0  0  0  0  0  0
   -3.5187   10.5120    0.0000 C   0  0  0  0  0  0  0  0  0  0  0  0
   -3.3619   12.0038    0.0000 C   0  0  0  0  0  0  0  0  0  0  0  0
   -1.9916   12.6139    0.0000 C   0  0  0  0  0  0  0  0  0  0  0  0
   -0.7780   11.7322    0.0000 C   0  0  0  0  0  0  0  0  0  0  0  0
   -1.9916    3.1036    0.0000 C   0  0  0  0  0  0  0  0  0  0  0  0
   -0.7780    2.2220    0.0000 O   0  0  0  0  0  0  0  0  0  0  0  0
   -0.7500    1.2990    0.0000 N   0  0  0  0  0  0  0  0  0  0  0  0
    0.7500    1.2990    0.0000 C   0  0  0  0  0  0  0  0  0  0  0  0
    1.5000    2.5981    0.0000 O   0  0  0  0  0  0  0  0  0  0  0  0
  1  2  1  0
  2  3  1  0
  3  4  2  0
  4  5  1  0
  5  6  2  0
  6  7  1  0
  7  8  2  0
  8  9  1  0
  9 10  2  0
 10 11  1  0
 11 12  1  0
 12 13  2  0
 13 14  1  0
 14 15  2  0
 15 16  1  0
 16 17  2  0
 16 18  1  0
 18 19  1  0
 19 20  2  0
 20 21  1  0
 21 22  2  0
 22 23  1  0
 23 24  1  0
 24 25  2  0
 25 26  1  0
 26 27  2  0
 27 28  1  0
 28 29  2  0
 15 30  1  0
 30 31  2  0
  6 32  1  0
 32 33  1  0
 33 34  2  0
 33  3  1  0
 11  7  1  0
 30 12  1  0
 23 19  1  0
 29 24  1  0
M  END
>  <Title>  (666) 
idAAZPgen8

$$$$

     RDKit          2D

 11 11  0  0  0  0  0  0  0  0999 V2000
    3.9271    0.0000    0.0000 O   0  0  0  0  0  0  0  0  0  0  0  0
    2.4271    0.0000    0.0000 C   0  0  0  0  0  0  0  0  0  0  0  0
    1.9635   -1.4266    0.0000 C   0  0  0  0  0  0  0  0  0  0  0  0
    0.7500   -2.3083    0.0000 C   0  0  0  0  0  0  0  0  0  0  0  0
   -0.7500   -2.3083    0.0000 C   0  0  0  0  0  0  0  0  0  0  0  0
   -1.9635   -1.4266    0.0000 C   0  0  0  0  0  0  0  0  0  0  0  0
   -2.4271    0.0000    0.0000 C   0  0  0  0  0  0  0  0  0  0  0  0
   -1.9635    1.4266    0.0000 N   0  0  0  0  0  0  0  0  0  0  0  0
   -0.7500    2.3083    0.0000 N   0  0  0  0  0  0  0  0  0  0  0  0
    0.7500    2.3083    0.0000 N   0  0  0  0  0  0  0  0  0  0  0  0
    1.9635    1.4266    0.0000 N   0  0  0  0  0  0  0  0  0  0  0  0
  1  2  1  0
  2  3  2  0
  3  4  1  0
  4  5  2  0
  5  6  1  0
  6  7  2  0
  7  8  1  0
  8  9  2  0
  9 10  1  0
 10 11  2  0
 11  2  1  0
M  END
>  <Title>  (667) 
idAAZQgen8

$$$$

     RDKit          2D

 37 37  0  0  0  0  0  0  0  0999 V2000
   10.1053    0.0000    0.0000 O   0  0  0  0  0  0  0  0  0  0  0  0
    8.6053    0.0000    0.0000 C   0  0  0  0  0  0  0  0  0  0  0  0
    8.4746   -1.4943    0.0000 C   0  0  0  0  0  0  0  0  0  0  0  0
    8.0863   -2.9432    0.0000 C   0  0  0  0  0  0  0  0  0  0  0  0
    7.4524   -4.3026    0.0000 C   0  0  0  0  0  0  0  0  0  0  0  0
    6.5920   -5.5314    0.0000 C   0  0  0  0  0  0  0  0  0  0  0  0
    5.5314   -6.5920    0.0000 C   0  0  0  0  0  0  0  0  0  0  0  0
    4.3026   -7.4524    0.0000 C   0  0  0  0  0  0  0  0  0  0  0  0
    2.9432   -8.0863    0.0000 C   0  0  0  0  0  0  0  0  0  0  0  0
    1.4943   -8.4746    0.0000 C   0  0  0  0  0  0  0  0  0  0  0  0
   -0.0000   -8.6053    0.0000 C   0  0  0  0  0  0  0  0  0  0  0  0
   -1.4943   -8.4746    0.0000 C   0  0  0  0  0  0  0  0  0  0  0  0
   -2.9432   -8.0863    0.0000 C   0  0  0  0  0  0  0  0  0  0  0  0
   -4.3026   -7.4524    0.0000 C   0  0  0  0  0  0  0  0  0  0  0  0
   -5.5314   -6.5920    0.0000 C   0  0  0  0  0  0  0  0  0  0  0  0
   -6.5920   -5.5314    0.0000 C   0  0  0  0  0  0  0  0  0  0  0  0
   -7.4524   -4.3026    0.0000 C   0  0  0  0  0  0  0  0  0  0  0  0
   -8.0863   -2.9432    0.0000 C   0  0  0  0  0  0  0  0  0  0  0  0
   -8.4746   -1.4943    0.0000 C   0  0  0  0  0  0  0  0  0  0  0  0
   -8.6053    0.0000    0.0000 C   0  0  0  0  0  0  0  0  0  0  0  0
   -8.4746    1.4943    0.0000 C   0  0  0  0  0  0  0  0  0  0  0  0
   -8.0863    2.9432    0.0000 C   0  0  0  0  0  0  0  0  0  0  0  0
   -7.4524    4.3026    0.0000 C   0  0  0  0  0  0  0  0  0  0  0  0
   -6.5920    5.5314    0.0000 C   0  0  0  0  0  0  0  0  0  0  0  0
   -5.5314    6.5920    0.0000 C   0  0  0  0  0  0  0  0  0  0  0  0
   -4.3026    7.4524    0.0000 C   0  0  0  0  0  0  0  0  0  0  0  0
   -2.9432    8.0863    0.0000 C   0  0  0  0  0  0  0  0  0  0  0  0
   -1.4943    8.4746    0.0000 C   0  0  0  0  0  0  0  0  0  0  0  0
    0.0000    8.6053    0.0000 C   0  0  0  0  0  0  0  0  0  0  0  0
    1.4943    8.4746    0.0000 C   0  0  0  0  0  0  0  0  0  0  0  0
    2.9432    8.0863    0.0000 C   0  0  0  0  0  0  0  0  0  0  0  0
    4.3026    7.4524    0.0000 C   0  0  0  0  0  0  0  0  0  0  0  0
    5.5314    6.5920    0.0000 C   0  0  0  0  0  0  0  0  0  0  0  0
    6.5920    5.5314    0.0000 C   0  0  0  0  0  0  0  0  0  0  0  0
    7.4524    4.3026    0.0000 C   0  0  0  0  0  0  0  0  0  0  0  0
    8.0863    2.9432    0.0000 C   0  0  0  0  0  0  0  0  0  0  0  0
    8.4746    1.4943    0.0000 C   0  0  0  0  0  0  0  0  0  0  0  0
  1  2  1  0
  2  3  2  0
  3  4  1  0
  4  5  2  0
  5  6  1  0
  6  7  2  0
  7  8  1  0
  8  9  2  0
  9 10  1  0
 10 11  2  0
 11 12  1  0
 12 13  2  0
 13 14  1  0
 14 15  2  0
 15 16  1  0
 16 17  2  0
 17 18  1  0
 18 19  2  0
 19 20  1  0
 20 21  2  0
 21 22  1  0
 22 23  2  0
 23 24  1  0
 24 25  2  0
 25 26  1  0
 26 27  2  0
 27 28  1  0
 28 29  2  0
 29 30  1  0
 30 31  2  0
 31 32  1  0
 32 33  2  0
 33 34  1  0
 34 35  2  0
 35 36  1  0
 36 37  2  0
 37  2  1  0
M  END
>  <Title>  (668) 
idAAZRgen8

$$$$

     RDKit          2D

 13 13  0  0  0  0  0  0  0  0999 V2000
    4.3978    0.0000    0.0000 C   0  0  0  0  0  0  0  0  0  0  0  0
    2.8978    0.0000    0.0000 C   0  0  0  0  0  0  0  0  0  0  0  0
    2.5095   -1.4489    0.0000 C   0  0  0  0  0  0  0  0  0  0  0  0
    1.4489   -2.5095    0.0000 C   0  0  0  0  0  0  0  0  0  0  0  0
   -0.0000   -2.8978    0.0000 C   0  0  0  0  0  0  0  0  0  0  0  0
   -1.4489   -2.5095    0.0000 C   0  0  0  0  0  0  0  0  0  0  0  0
   -2.5095   -1.4489    0.0000 C   0  0  0  0  0  0  0  0  0  0  0  0
   -2.8978    0.0000    0.0000 C   0  0  0  0  0  0  0  0  0  0  0  0
   -2.5095    1.4489    0.0000 C   0  0  0  0  0  0  0  0  0  0  0  0
   -1.4489    2.5095    0.0000 C   0  0  0  0  0  0  0  0  0  0  0  0
    0.0000    2.8978    0.0000 C   0  0  0  0  0  0  0  0  0  0  0  0
    1.4489    2.5095    0.0000 C   0  0  0  0  0  0  0  0  0  0  0  0
    2.5095    1.4489    0.0000 C   0  0  0  0  0  0  0  0  0  0  0  0
  1  2  1  0
  2  3  2  0
  3  4  1  0
  4  5  2  0
  5  6  2  0
  6  7  2  0
  7  8  1  0
  8  9  2  0
  9 10  1  0
 10 11  2  0
 11 12  1  0
 12 13  2  0
 13  2  1  0
M  END
>  <Title>  (669) 
idAAZSgen8

$$$$

     RDKit          2D

 33 37  0  0  0  0  0  0  0  0999 V2000
    3.0000    0.0000    0.0000 C   0  0  0  0  0  0  0  0  0  0  0  0
    1.5000    0.0000    0.0000 C   0  0  0  0  0  0  0  0  0  0  0  0
    0.7500   -1.2990    0.0000 C   0  0  0  0  0  0  0  0  0  0  0  0
   -0.7500   -1.2990    0.0000 C   0  0  0  0  0  0  0  0  0  0  0  0
   -1.5000    0.0000    0.0000 C   0  0  0  0  0  0  0  0  0  0  0  0
   -3.0000    0.0000    0.0000 C   0  0  0  0  0  0  0  0  0  0  0  0
   -3.8817   -1.2135    0.0000 N   0  0  0  0  0  0  0  0  0  0  0  0
   -5.3083   -0.7500    0.0000 N   0  0  0  0  0  0  0  0  0  0  0  0
   -5.3083    0.7500    0.0000 N   0  0  0  0  0  0  0  0  0  0  0  0
   -3.8817    1.2135    0.0000 N   0  0  0  0  0  0  0  0  0  0  0  0
   -3.4182    2.6401    0.0000 C   0  0  0  0  0  0  0  0  0  0  0  0
   -1.9509    2.9520    0.0000 C   0  0  0  0  0  0  0  0  0  0  0  0
   -1.4874    4.3786    0.0000 C   0  0  0  0  0  0  0  0  0  0  0  0
   -2.4911    5.4933    0.0000 C   0  0  0  0  0  0  0  0  0  0  0  0
   -3.9583    5.1814    0.0000 C   0  0  0  0  0  0  0  0  0  0  0  0
   -4.4218    3.7548    0.0000 C   0  0  0  0  0  0  0  0  0  0  0  0
   -5.8891    3.4430    0.0000 C   0  0  0  0  0  0  0  0  0  0  0  0
   -6.4992    2.0726    0.0000 N   0  0  0  0  0  0  0  0  0  0  0  0
   -7.9910    2.2294    0.0000 N   0  0  0  0  0  0  0  0  0  0  0  0
   -8.3028    3.6967    0.0000 N   0  0  0  0  0  0  0  0  0  0  0  0
   -7.0038    4.4467    0.0000 N   0  0  0  0  0  0  0  0  0  0  0  0
   -6.8470    5.9384    0.0000 C   0  0  0  0  0  0  0  0  0  0  0  0
   -5.4767    6.5485    0.0000 C   0  0  0  0  0  0  0  0  0  0  0  0
   -5.3199    8.0403    0.0000 C   0  0  0  0  0  0  0  0  0  0  0  0
   -6.5334    8.9220    0.0000 C   0  0  0  0  0  0  0  0  0  0  0  0
   -6.3766   10.4138    0.0000 C   0  0  0  0  0  0  0  0  0  0  0  0
   -7.5901   11.2955    0.0000 O   0  0  0  0  0  0  0  0  0  0  0  0
   -5.0063   11.0239    0.0000 N   0  0  0  0  0  0  0  0  0  0  0  0
   -4.8495   12.5157    0.0000 O   0  0  0  0  0  0  0  0  0  0  0  0
   -7.9037    8.3119    0.0000 C   0  0  0  0  0  0  0  0  0  0  0  0
   -8.0605    6.8201    0.0000 C   0  0  0  0  0  0  0  0  0  0  0  0
   -0.7500    1.2990    0.0000 C   0  0  0  0  0  0  0  0  0  0  0  0
    0.7500    1.2990    0.0000 N   0  0  0  0  0  0  0  0  0  0  0  0
  1  2  1  0
  2  3  2  0
  3  4  1  0
  4  5  2  0
  5  6  1  0
  6  7  2  0
  7  8  1  0
  8  9  2  0
  9 10  1  0
 10 11  1  0
 11 12  1  0
 12 13  1  0
 13 14  1  0
 14 15  1  0
 15 16  1  0
 16 17  1  0
 17 18  2  0
 18 19  1  0
 19 20  2  0
 20 21  1  0
 21 22  1  0
 22 23  2  0
 23 24  1  0
 24 25  2  0
 25 26  1  0
 26 27  2  0
 26 28  1  0
 28 29  1  0
 25 30  1  0
 30 31  1  0
  5 32  1  0
 32 33  1  0
 33  2  1  0
 10  6  1  0
 16 11  1  0
 21 17  1  0
 31 22  1  0
M  END
>  <Title>  (670) 
idAAZTgen8

$$$$

     RDKit          2D

 37 42  0  0  0  0  0  0  0  0999 V2000
    3.0000    0.0000    0.0000 C   0  0  0  0  0  0  0  0  0  0  0  0
    1.5000    0.0000    0.0000 C   0  0  0  0  0  0  0  0  0  0  0  0
    0.7500   -1.2990    0.0000 C   0  0  0  0  0  0  0  0  0  0  0  0
   -0.7500   -1.2990    0.0000 C   0  0  0  0  0  0  0  0  0  0  0  0
   -1.5000    0.0000    0.0000 C   0  0  0  0  0  0  0  0  0  0  0  0
   -3.0000    0.0000    0.0000 C   0  0  0  0  0  0  0  0  0  0  0  0
   -3.8817   -1.2135    0.0000 N   0  0  0  0  0  0  0  0  0  0  0  0
   -5.3083   -0.7500    0.0000 N   0  0  0  0  0  0  0  0  0  0  0  0
   -5.3083    0.7500    0.0000 N   0  0  0  0  0  0  0  0  0  0  0  0
   -3.8817    1.2135    0.0000 N   0  0  0  0  0  0  0  0  0  0  0  0
   -3.4182    2.6401    0.0000 C   0  0  0  0  0  0  0  0  0  0  0  0
   -1.9509    2.9520    0.0000 C   0  0  0  0  0  0  0  0  0  0  0  0
   -1.4874    4.3786    0.0000 C   0  0  0  0  0  0  0  0  0  0  0  0
   -2.4911    5.4933    0.0000 C   0  0  0  0  0  0  0  0  0  0  0  0
   -2.0276    6.9199    0.0000 C   0  0  0  0  0  0  0  0  0  0  0  0
   -2.9093    8.1334    0.0000 N   0  0  0  0  0  0  0  0  0  0  0  0
   -2.0276    9.3469    0.0000 N   0  0  0  0  0  0  0  0  0  0  0  0
   -0.6010    8.8834    0.0000 N   0  0  0  0  0  0  0  0  0  0  0  0
   -0.6010    7.3834    0.0000 N   0  0  0  0  0  0  0  0  0  0  0  0
    0.6125    6.5017    0.0000 C   0  0  0  0  0  0  0  0  0  0  0  0
    0.4557    5.0099    0.0000 C   0  0  0  0  0  0  0  0  0  0  0  0
    1.6693    4.1283    0.0000 C   0  0  0  0  0  0  0  0  0  0  0  0
    3.0396    4.7384    0.0000 C   0  0  0  0  0  0  0  0  0  0  0  0
    3.1964    6.2301    0.0000 C   0  0  0  0  0  0  0  0  0  0  0  0
    1.9829    7.1118    0.0000 C   0  0  0  0  0  0  0  0  0  0  0  0
   -3.9583    5.1814    0.0000 C   0  0  0  0  0  0  0  0  0  0  0  0
   -4.4218    3.7548    0.0000 C   0  0  0  0  0  0  0  0  0  0  0  0
   -5.8891    3.4430    0.0000 C   0  0  0  0  0  0  0  0  0  0  0  0
   -6.8928    4.5577    0.0000 C   0  0  0  0  0  0  0  0  0  0  0  0
   -8.3600    4.2458    0.0000 C   0  0  0  0  0  0  0  0  0  0  0  0
   -8.8235    2.8192    0.0000 C   0  0  0  0  0  0  0  0  0  0  0  0
  -10.2907    2.5074    0.0000 C   0  0  0  0  0  0  0  0  0  0  0  0
   -7.8198    1.7045    0.0000 C   0  0  0  0  0  0  0  0  0  0  0  0
   -8.2833    0.2779    0.0000 O   0  0  0  0  0  0  0  0  0  0  0  0
   -6.3526    2.0164    0.0000 N   0  0  0  0  0  0  0  0  0  0  0  0
   -0.7500    1.2990    0.0000 N   0  0  0  0  0  0  0  0  0  0  0  0
    0.7500    1.2990    0.0000 N   0  0  0  0  0  0  0  0  0  0  0  0
  1  2  1  0
  2  3  2  0
  3  4  1  0
  4  5  2  0
  5  6  1  0
  6  7  2  0
  7  8  1  0
  8  9  2  0
  9 10  1  0
 10 11  1  0
 11 12  2  0
 12 13  1  0
 13 14  2  0
 14 15  1  0
 15 16  2  0
 16 17  1  0
 17 18  2  0
 18 19  1  0
 19 20  1  0
 20 21  2  0
 21 22  1  0
 22 23  2  0
 23 24  1  0
 24 25  2  0
 14 26  1  0
 26 27  2  0
 27 28  1  0
 28 29  2  0
 29 30  1  0
 30 31  2  0
 31 32  1  0
 31 33  1  0
 33 34  2  0
 33 35  1  0
  5 36  1  0
 36 37  2  0
 37  2  1  0
 10  6  1  0
 27 11  1  0
 35 28  1  0
 19 15  1  0
 25 20  1  0
M  END
>  <Title>  (671) 
idAAZUgen8

$$$$

     RDKit          2D

  7  7  0  0  0  0  0  0  0  0999 V2000
    3.0000    0.0000    0.0000 O   0  0  0  0  0  0  0  0  0  0  0  0
    1.5000    0.0000    0.0000 C   0  0  0  0  0  0  0  0  0  0  0  0
    0.7500   -1.2990    0.0000 C   0  0  0  0  0  0  0  0  0  0  0  0
   -0.7500   -1.2990    0.0000 C   0  0  0  0  0  0  0  0  0  0  0  0
   -1.5000    0.0000    0.0000 C   0  0  0  0  0  0  0  0  0  0  0  0
   -0.7500    1.2990    0.0000 C   0  0  0  0  0  0  0  0  0  0  0  0
    0.7500    1.2990    0.0000 N   0  0  0  0  0  0  0  0  0  0  0  0
  1  2  1  0
  2  3  2  0
  3  4  1  0
  4  5  2  0
  5  6  1  0
  6  7  2  0
  7  2  1  0
M  END
>  <Title>  (672) 
idAAZVgen8

$$$$

     RDKit          2D

 62 71  0  0  0  0  0  0  0  0999 V2000
    3.0000    0.0000    0.0000 C   0  0  0  0  0  0  0  0  0  0  0  0
    1.5000    0.0000    0.0000 C   0  0  0  0  0  0  0  0  0  0  0  0
    0.7500    1.2990    0.0000 C   0  0  0  0  0  0  0  0  0  0  0  0
   -0.7500    1.2990    0.0000 C   0  0  0  0  0  0  0  0  0  0  0  0
   -1.5000    0.0000    0.0000 C   0  0  0  0  0  0  0  0  0  0  0  0
   -3.0000    0.0000    0.0000 C   0  0  0  0  0  0  0  0  0  0  0  0
   -3.8817   -1.2135    0.0000 N   0  0  0  0  0  0  0  0  0  0  0  0
   -5.3083   -0.7500    0.0000 N   0  0  0  0  0  0  0  0  0  0  0  0
   -5.3083    0.7500    0.0000 N   0  0  0  0  0  0  0  0  0  0  0  0
   -3.8817    1.2135    0.0000 N   0  0  0  0  0  0  0  0  0  0  0  0
   -3.4182    2.6401    0.0000 C   0  0  0  0  0  0  0  0  0  0  0  0
   -1.9509    2.9520    0.0000 C   0  0  0  0  0  0  0  0  0  0  0  0
   -1.4874    4.3786    0.0000 C   0  0  0  0  0  0  0  0  0  0  0  0
   -2.4911    5.4933    0.0000 C   0  0  0  0  0  0  0  0  0  0  0  0
   -3.9583    5.1814    0.0000 C   0  0  0  0  0  0  0  0  0  0  0  0
   -4.4218    3.7548    0.0000 C   0  0  0  0  0  0  0  0  0  0  0  0
   -5.8891    3.4430    0.0000 C   0  0  0  0  0  0  0  0  0  0  0  0
   -6.4992    2.0726    0.0000 N   0  0  0  0  0  0  0  0  0  0  0  0
   -7.9910    2.2294    0.0000 N   0  0  0  0  0  0  0  0  0  0  0  0
   -8.3028    3.6967    0.0000 N   0  0  0  0  0  0  0  0  0  0  0  0
   -7.0038    4.4467    0.0000 N   0  0  0  0  0  0  0  0  0  0  0  0
   -6.8470    5.9384    0.0000 C   0  0  0  0  0  0  0  0  0  0  0  0
   -5.4767    6.5485    0.0000 C   0  0  0  0  0  0  0  0  0  0  0  0
   -5.3199    8.0403    0.0000 C   0  0  0  0  0  0  0  0  0  0  0  0
   -6.5334    8.9220    0.0000 C   0  0  0  0  0  0  0  0  0  0  0  0
   -6.3766   10.4138    0.0000 C   0  0  0  0  0  0  0  0  0  0  0  0
   -7.5901   11.2955    0.0000 O   0  0  0  0  0  0  0  0  0  0  0  0
   -5.0063   11.0239    0.0000 N   0  0  0  0  0  0  0  0  0  0  0  0
   -4.8495   12.5157    0.0000 C   0  0  0  0  0  0  0  0  0  0  0  0
   -5.9642   13.5194    0.0000 N   0  0  0  0  0  0  0  0  0  0  0  0
   -5.3541   14.8897    0.0000 N   0  0  0  0  0  0  0  0  0  0  0  0
   -3.8623   14.7329    0.0000 N   0  0  0  0  0  0  0  0  0  0  0  0
   -3.5505   13.2657    0.0000 N   0  0  0  0  0  0  0  0  0  0  0  0
   -2.1801   12.6556    0.0000 C   0  0  0  0  0  0  0  0  0  0  0  0
   -2.0234   11.1638    0.0000 C   0  0  0  0  0  0  0  0  0  0  0  0
   -0.6530   10.5537    0.0000 C   0  0  0  0  0  0  0  0  0  0  0  0
    0.5605   11.4354    0.0000 C   0  0  0  0  0  0  0  0  0  0  0  0
    0.4037   12.9271    0.0000 C   0  0  0  0  0  0  0  0  0  0  0  0
   -0.9666   13.5372    0.0000 C   0  0  0  0  0  0  0  0  0  0  0  0
   -7.9037    8.3119    0.0000 C   0  0  0  0  0  0  0  0  0  0  0  0
   -8.0605    6.8201    0.0000 C   0  0  0  0  0  0  0  0  0  0  0  0
   -9.4308    6.2100    0.0000 C   0  0  0  0  0  0  0  0  0  0  0  0
  -10.6444    7.0917    0.0000 C   0  0  0  0  0  0  0  0  0  0  0  0
  -12.0147    6.4816    0.0000 C   0  0  0  0  0  0  0  0  0  0  0  0
  -12.1715    4.9898    0.0000 C   0  0  0  0  0  0  0  0  0  0  0  0
  -13.5418    4.3797    0.0000 C   0  0  0  0  0  0  0  0  0  0  0  0
  -14.7553    5.2614    0.0000 C   0  0  0  0  0  0  0  0  0  0  0  0
  -16.1256    4.6513    0.0000 C   0  0  0  0  0  0  0  0  0  0  0  0
  -16.2824    3.1595    0.0000 C   0  0  0  0  0  0  0  0  0  0  0  0
  -15.0689    2.2778    0.0000 C   0  0  0  0  0  0  0  0  0  0  0  0
  -13.6986    2.8879    0.0000 C   0  0  0  0  0  0  0  0  0  0  0  0
  -12.4851    2.0062    0.0000 C   0  0  0  0  0  0  0  0  0  0  0  0
  -12.6419    0.5145    0.0000 C   0  0  0  0  0  0  0  0  0  0  0  0
  -11.4283   -0.3672    0.0000 C   0  0  0  0  0  0  0  0  0  0  0  0
  -10.0580    0.2429    0.0000 C   0  0  0  0  0  0  0  0  0  0  0  0
   -9.9012    1.7347    0.0000 C   0  0  0  0  0  0  0  0  0  0  0  0
  -11.1147    2.6163    0.0000 C   0  0  0  0  0  0  0  0  0  0  0  0
  -10.9579    4.1081    0.0000 C   0  0  0  0  0  0  0  0  0  0  0  0
   -9.5876    4.7182    0.0000 C   0  0  0  0  0  0  0  0  0  0  0  0
   -0.7500   -1.2990    0.0000 C   0  0  0  0  0  0  0  0  0  0  0  0
   -1.5000   -2.5981    0.0000 O   0  0  0  0  0  0  0  0  0  0  0  0
    0.7500   -1.2990    0.0000 N   0  0  0  0  0  0  0  0  0  0  0  0
  1  2  1  0
  2  3  2  0
  3  4  1  0
  4  5  2  0
  5  6  1  0
  6  7  2  0
  7  8  1  0
  8  9  2  0
  9 10  1  0
 10 11  1  0
 11 12  1  0
 12 13  1  0
 13 14  1  0
 14 15  1  0
 15 16  1  0
 16 17  1  0
 17 18  2  0
 18 19  1  0
 19 20  2  0
 20 21  1  0
 21 22  1  0
 22 23  2  0
 23 24  1  0
 24 25  2  0
 25 26  1  0
 26 27  2  0
 26 28  1  0
 28 29  1  0
 29 30  2  0
 30 31  1  0
 31 32  2  0
 32 33  1  0
 33 34  1  0
 34 35  2  0
 35 36  1  0
 36 37  2  0
 37 38  1  0
 38 39  2  0
 25 40  1  0
 40 41  2  0
 41 42  1  0
 42 43  2  0
 43 44  1  0
 44 45  2  0
 45 46  1  0
 46 47  2  0
 47 48  1  0
 48 49  2  0
 49 50  1  0
 50 51  2  0
 51 52  1  0
 52 53  2  0
 53 54  1  0
 54 55  2  0
 55 56  1  0
 56 57  2  0
 45 58  1  0
 58 59  2  0
  5 60  1  0
 60 61  2  0
 60 62  1  0
 62  2  1  0
 10  6  1  0
 16 11  1  0
 21 17  1  0
 41 22  1  0
 59 42  1  0
 33 29  1  0
 39 34  1  0
 51 46  1  0
 57 52  1  0
M  END
>  <Title>  (673) 
idAAZWgen8

$$$$

     RDKit          2D

 13 13  0  0  0  0  0  0  0  0999 V2000
    4.3978    0.0000    0.0000 O   0  0  0  0  0  0  0  0  0  0  0  0
    2.8978    0.0000    0.0000 C   0  0  0  0  0  0  0  0  0  0  0  0
    2.5095   -1.4489    0.0000 C   0  0  0  0  0  0  0  0  0  0  0  0
    1.4489   -2.5095    0.0000 C   0  0  0  0  0  0  0  0  0  0  0  0
   -0.0000   -2.8978    0.0000 C   0  0  0  0  0  0  0  0  0  0  0  0
   -1.4489   -2.5095    0.0000 C   0  0  0  0  0  0  0  0  0  0  0  0
   -2.5095   -1.4489    0.0000 C   0  0  0  0  0  0  0  0  0  0  0  0
   -2.8978    0.0000    0.0000 C   0  0  0  0  0  0  0  0  0  0  0  0
   -2.5095    1.4489    0.0000 C   0  0  0  0  0  0  0  0  0  0  0  0
   -1.4489    2.5095    0.0000 C   0  0  0  0  0  0  0  0  0  0  0  0
    0.0000    2.8978    0.0000 C   0  0  0  0  0  0  0  0  0  0  0  0
    1.4489    2.5095    0.0000 C   0  0  0  0  0  0  0  0  0  0  0  0
    2.5095    1.4489    0.0000 N   0  0  0  0  0  0  0  0  0  0  0  0
  1  2  1  0
  2  3  2  0
  3  4  1  0
  4  5  2  0
  5  6  1  0
  6  7  2  0
  7  8  1  0
  8  9  2  0
  9 10  1  0
 10 11  2  0
 11 12  1  0
 12 13  1  0
 13  2  1  0
M  END
>  <Title>  (674) 
idAAZXgen8

$$$$

     RDKit          2D

 47 52  0  0  0  0  0  0  0  0999 V2000
    5.1073    0.0000    0.0000 C   0  0  0  0  0  0  0  0  0  0  0  0
    3.6073    0.0000    0.0000 C   0  0  0  0  0  0  0  0  0  0  0  0
    3.2954    1.4672    0.0000 C   0  0  0  0  0  0  0  0  0  0  0  0
    2.4138    2.6807    0.0000 C   0  0  0  0  0  0  0  0  0  0  0  0
    1.1147    3.4307    0.0000 C   0  0  0  0  0  0  0  0  0  0  0  0
   -0.3771    3.5875    0.0000 C   0  0  0  0  0  0  0  0  0  0  0  0
   -1.8037    3.1240    0.0000 C   0  0  0  0  0  0  0  0  0  0  0  0
   -2.9184    2.1203    0.0000 C   0  0  0  0  0  0  0  0  0  0  0  0
   -3.5285    0.7500    0.0000 C   0  0  0  0  0  0  0  0  0  0  0  0
   -3.5285   -0.7500    0.0000 C   0  0  0  0  0  0  0  0  0  0  0  0
   -2.9184   -2.1203    0.0000 C   0  0  0  0  0  0  0  0  0  0  0  0
   -1.8037   -3.1240    0.0000 C   0  0  0  0  0  0  0  0  0  0  0  0
   -0.3771   -3.5875    0.0000 C   0  0  0  0  0  0  0  0  0  0  0  0
   -1.1846   -4.8516    0.0000 C   0  0  0  0  0  0  0  0  0  0  0  0
   -0.6998   -6.2711    0.0000 C   0  0  0  0  0  0  0  0  0  0  0  0
    0.7123   -6.7771    0.0000 C   0  0  0  0  0  0  0  0  0  0  0  0
    0.8691   -8.2689    0.0000 N   0  0  0  0  0  0  0  0  0  0  0  0
   -0.3444   -9.1506    0.0000 C   0  0  0  0  0  0  0  0  0  0  0  0
   -1.7147   -8.5405    0.0000 O   0  0  0  0  0  0  0  0  0  0  0  0
   -0.1876  -10.6424    0.0000 C   0  0  0  0  0  0  0  0  0  0  0  0
    1.1114  -11.3924    0.0000 N   0  0  0  0  0  0  0  0  0  0  0  0
    0.7995  -12.8596    0.0000 N   0  0  0  0  0  0  0  0  0  0  0  0
   -0.6922  -13.0164    0.0000 N   0  0  0  0  0  0  0  0  0  0  0  0
   -1.3024  -11.6460    0.0000 N   0  0  0  0  0  0  0  0  0  0  0  0
   -2.7696  -11.3342    0.0000 C   0  0  0  0  0  0  0  0  0  0  0  0
   -3.2331   -9.9076    0.0000 C   0  0  0  0  0  0  0  0  0  0  0  0
   -4.7003   -9.5957    0.0000 C   0  0  0  0  0  0  0  0  0  0  0  0
   -5.7040  -10.7104    0.0000 C   0  0  0  0  0  0  0  0  0  0  0  0
   -7.1712  -10.3986    0.0000 C   0  0  0  0  0  0  0  0  0  0  0  0
   -7.6348   -8.9720    0.0000 C   0  0  0  0  0  0  0  0  0  0  0  0
   -9.1020   -8.6601    0.0000 C   0  0  0  0  0  0  0  0  0  0  0  0
  -10.1057   -9.7748    0.0000 C   0  0  0  0  0  0  0  0  0  0  0  0
   -9.6422  -11.2014    0.0000 C   0  0  0  0  0  0  0  0  0  0  0  0
   -8.1749  -11.5133    0.0000 C   0  0  0  0  0  0  0  0  0  0  0  0
   -5.2405  -12.1370    0.0000 C   0  0  0  0  0  0  0  0  0  0  0  0
   -3.7733  -12.4489    0.0000 C   0  0  0  0  0  0  0  0  0  0  0  0
   -3.3097  -13.8755    0.0000 C   0  0  0  0  0  0  0  0  0  0  0  0
   -4.3134  -14.9902    0.0000 C   0  0  0  0  0  0  0  0  0  0  0  0
   -3.8499  -16.4168    0.0000 C   0  0  0  0  0  0  0  0  0  0  0  0
   -2.3827  -16.7287    0.0000 C   0  0  0  0  0  0  0  0  0  0  0  0
   -1.3790  -15.6139    0.0000 C   0  0  0  0  0  0  0  0  0  0  0  0
   -1.8425  -14.1873    0.0000 C   0  0  0  0  0  0  0  0  0  0  0  0
    1.9883   -5.9886    0.0000 C   0  0  0  0  0  0  0  0  0  0  0  0
    2.1674   -4.4993    0.0000 C   0  0  0  0  0  0  0  0  0  0  0  0
    1.1147   -3.4307    0.0000 C   0  0  0  0  0  0  0  0  0  0  0  0
    2.4138   -2.6807    0.0000 C   0  0  0  0  0  0  0  0  0  0  0  0
    3.2954   -1.4672    0.0000 C   0  0  0  0  0  0  0  0  0  0  0  0
  1  2  1  0
  2  3  2  0
  3  4  1  0
  4  5  2  0
  5  6  1  0
  6  7  2  0
  7  8  1  0
  8  9  2  0
  9 10  1  0
 10 11  2  0
 11 12  1  0
 12 13  2  0
 13 14  1  0
 14 15  2  0
 15 16  1  0
 16 17  1  0
 17 18  1  0
 18 19  2  0
 18 20  1  0
 20 21  2  0
 21 22  1  0
 22 23  2  0
 23 24  1  0
 24 25  1  0
 25 26  2  0
 26 27  1  0
 27 28  2  0
 28 29  1  0
 29 30  2  0
 30 31  1  0
 31 32  2  0
 32 33  1  0
 33 34  2  0
 28 35  1  0
 35 36  2  0
 36 37  1  0
 37 38  2  0
 38 39  1  0
 39 40  2  0
 40 41  1  0
 41 42  2  0
 16 43  2  0
 43 44  1  0
 44 45  2  0
 45 46  1  0
 46 47  2  0
 47  2  1  0
 45 13  1  0
 24 20  1  0
 36 25  1  0
 42 37  1  0
 34 29  1  0
M  END
>  <Title>  (675) 
idAAZYgen8

$$$$

     RDKit          2D

 41 42  0  0  0  0  0  0  0  0999 V2000
   -5.7962   -1.5938    0.0000 C   0  0  0  0  0  0  0  0  0  0  0  0
   -4.9358   -2.8225    0.0000 C   0  0  0  0  0  0  0  0  0  0  0  0
   -6.0849   -3.7867    0.0000 C   0  0  0  0  0  0  0  0  0  0  0  0
   -7.0490   -4.9358    0.0000 C   0  0  0  0  0  0  0  0  0  0  0  0
   -7.7990   -6.2348    0.0000 C   0  0  0  0  0  0  0  0  0  0  0  0
   -8.3121   -7.6444    0.0000 C   0  0  0  0  0  0  0  0  0  0  0  0
   -8.5725   -9.1216    0.0000 C   0  0  0  0  0  0  0  0  0  0  0  0
   -8.5725  -10.6216    0.0000 C   0  0  0  0  0  0  0  0  0  0  0  0
   -8.3121  -12.0988    0.0000 C   0  0  0  0  0  0  0  0  0  0  0  0
   -7.7990  -13.5083    0.0000 C   0  0  0  0  0  0  0  0  0  0  0  0
   -7.0490  -14.8074    0.0000 C   0  0  0  0  0  0  0  0  0  0  0  0
   -6.0849  -15.9564    0.0000 C   0  0  0  0  0  0  0  0  0  0  0  0
   -4.9358  -16.9206    0.0000 C   0  0  0  0  0  0  0  0  0  0  0  0
   -3.6368  -17.6706    0.0000 C   0  0  0  0  0  0  0  0  0  0  0  0
   -2.2272  -18.1836    0.0000 C   0  0  0  0  0  0  0  0  0  0  0  0
   -0.7500  -18.4441    0.0000 C   0  0  0  0  0  0  0  0  0  0  0  0
    0.7500  -18.4441    0.0000 C   0  0  0  0  0  0  0  0  0  0  0  0
    2.2272  -18.1836    0.0000 C   0  0  0  0  0  0  0  0  0  0  0  0
    3.6368  -17.6706    0.0000 C   0  0  0  0  0  0  0  0  0  0  0  0
    4.9358  -16.9206    0.0000 C   0  0  0  0  0  0  0  0  0  0  0  0
    6.0849  -15.9564    0.0000 C   0  0  0  0  0  0  0  0  0  0  0  0
    7.0490  -14.8074    0.0000 C   0  0  0  0  0  0  0  0  0  0  0  0
    7.7990  -13.5083    0.0000 C   0  0  0  0  0  0  0  0  0  0  0  0
    8.3121  -12.0988    0.0000 C   0  0  0  0  0  0  0  0  0  0  0  0
    8.5725  -10.6216    0.0000 C   0  0  0  0  0  0  0  0  0  0  0  0
    8.5725   -9.1216    0.0000 C   0  0  0  0  0  0  0  0  0  0  0  0
    8.3121   -7.6444    0.0000 C   0  0  0  0  0  0  0  0  0  0  0  0
    7.7990   -6.2348    0.0000 C   0  0  0  0  0  0  0  0  0  0  0  0
    7.0490   -4.9358    0.0000 C   0  0  0  0  0  0  0  0  0  0  0  0
    6.0849   -3.7867    0.0000 C   0  0  0  0  0  0  0  0  0  0  0  0
    4.9358   -2.8225    0.0000 C   0  0  0  0  0  0  0  0  0  0  0  0
    3.6368   -2.0725    0.0000 C   0  0  0  0  0  0  0  0  0  0  0  0
    2.2272   -1.5595    0.0000 O   0  0  0  0  0  0  0  0  0  0  0  0
    0.7500   -1.2990    0.0000 C   0  0  0  0  0  0  0  0  0  0  0  0
    1.5000    0.0000    0.0000 C   0  0  0  0  0  0  0  0  0  0  0  0
    0.7500    1.2990    0.0000 C   0  0  0  0  0  0  0  0  0  0  0  0
   -0.7500    1.2990    0.0000 C   0  0  0  0  0  0  0  0  0  0  0  0
   -1.5000    0.0000    0.0000 C   0  0  0  0  0  0  0  0  0  0  0  0
   -0.7500   -1.2990    0.0000 C   0  0  0  0  0  0  0  0  0  0  0  0
   -2.2272   -1.5595    0.0000 C   0  0  0  0  0  0  0  0  0  0  0  0
   -3.6368   -2.0725    0.0000 C   0  0  0  0  0  0  0  0  0  0  0  0
  1  2  1  0
  2  3  2  0
  3  4  1  0
  4  5  2  0
  5  6  1  0
  6  7  2  0
  7  8  1  0
  8  9  2  0
  9 10  1  0
 10 11  2  0
 11 12  1  0
 12 13  2  0
 13 14  1  0
 14 15  2  0
 15 16  1  0
 16 17  2  0
 17 18  1  0
 18 19  2  0
 19 20  1  0
 20 21  2  0
 21 22  1  0
 22 23  2  0
 23 24  1  0
 24 25  2  0
 25 26  1  0
 26 27  2  0
 27 28  1  0
 28 29  2  0
 29 30  1  0
 30 31  2  0
 31 32  1  0
 32 33  1  0
 33 34  1  0
 34 35  2  0
 35 36  1  0
 36 37  2  0
 37 38  1  0
 38 39  2  0
 39 40  1  0
 40 41  2  0
 41  2  1  0
 39 34  1  0
M  END
>  <Title>  (676) 
idAAZZgen8

$$$$

     RDKit          2D

 56 64  0  0  0  0  0  0  0  0999 V2000
   12.1063   -3.1976    0.0000 C   0  0  0  0  0  0  0  0  0  0  0  0
   12.3299   -1.7144    0.0000 C   0  0  0  0  0  0  0  0  0  0  0  0
   13.7262   -1.1664    0.0000 C   0  0  0  0  0  0  0  0  0  0  0  0
   13.9498    0.3169    0.0000 C   0  0  0  0  0  0  0  0  0  0  0  0
   12.7770    1.2521    0.0000 C   0  0  0  0  0  0  0  0  0  0  0  0
   13.0006    2.7354    0.0000 C   0  0  0  0  0  0  0  0  0  0  0  0
   14.3320    3.4263    0.0000 C   0  0  0  0  0  0  0  0  0  0  0  0
   14.0862    4.9061    0.0000 N   0  0  0  0  0  0  0  0  0  0  0  0
   12.6030    5.1296    0.0000 N   0  0  0  0  0  0  0  0  0  0  0  0
   11.9320    3.7881    0.0000 N   0  0  0  0  0  0  0  0  0  0  0  0
   10.4523    3.5423    0.0000 C   0  0  0  0  0  0  0  0  0  0  0  0
    9.9252    2.1380    0.0000 N   0  0  0  0  0  0  0  0  0  0  0  0
    8.4455    1.8923    0.0000 C   0  0  0  0  0  0  0  0  0  0  0  0
    7.4928    3.0509    0.0000 N   0  0  0  0  0  0  0  0  0  0  0  0
    8.0199    4.4552    0.0000 N   0  0  0  0  0  0  0  0  0  0  0  0
    9.4996    4.7010    0.0000 N   0  0  0  0  0  0  0  0  0  0  0  0
   10.0267    6.1053    0.0000 C   0  0  0  0  0  0  0  0  0  0  0  0
   11.5064    6.3510    0.0000 C   0  0  0  0  0  0  0  0  0  0  0  0
   12.0335    7.7554    0.0000 C   0  0  0  0  0  0  0  0  0  0  0  0
   11.0808    8.9140    0.0000 C   0  0  0  0  0  0  0  0  0  0  0  0
   11.6079   10.3184    0.0000 C   0  0  0  0  0  0  0  0  0  0  0  0
   10.7815   11.5702    0.0000 N   0  0  0  0  0  0  0  0  0  0  0  0
   11.7167   12.7430    0.0000 N   0  0  0  0  0  0  0  0  0  0  0  0
   13.1211   12.2159    0.0000 N   0  0  0  0  0  0  0  0  0  0  0  0
   13.0538   10.7174    0.0000 N   0  0  0  0  0  0  0  0  0  0  0  0
   14.2265    9.7822    0.0000 C   0  0  0  0  0  0  0  0  0  0  0  0
   14.0030    8.2989    0.0000 C   0  0  0  0  0  0  0  0  0  0  0  0
   15.1757    7.3637    0.0000 C   0  0  0  0  0  0  0  0  0  0  0  0
   16.5720    7.9117    0.0000 C   0  0  0  0  0  0  0  0  0  0  0  0
   16.7956    9.3950    0.0000 C   0  0  0  0  0  0  0  0  0  0  0  0
   15.6229   10.3302    0.0000 C   0  0  0  0  0  0  0  0  0  0  0  0
    9.6011    8.6683    0.0000 C   0  0  0  0  0  0  0  0  0  0  0  0
    9.0740    7.2639    0.0000 C   0  0  0  0  0  0  0  0  0  0  0  0
    7.5943    7.0182    0.0000 C   0  0  0  0  0  0  0  0  0  0  0  0
    6.7217    5.7981    0.0000 C   0  0  0  0  0  0  0  0  0  0  0  0
    5.5016    6.6707    0.0000 C   0  0  0  0  0  0  0  0  0  0  0  0
    6.3742    7.8908    0.0000 C   0  0  0  0  0  0  0  0  0  0  0  0
    6.1284    9.3705    0.0000 C   0  0  0  0  0  0  0  0  0  0  0  0
    7.1811   10.4391    0.0000 C   0  0  0  0  0  0  0  0  0  0  0  0
    6.4902   11.7705    0.0000 C   0  0  0  0  0  0  0  0  0  0  0  0
    5.0104   11.5247    0.0000 C   0  0  0  0  0  0  0  0  0  0  0  0
    3.9419   12.5774    0.0000 C   0  0  0  0  0  0  0  0  0  0  0  0
    4.7869   10.0415    0.0000 C   0  0  0  0  0  0  0  0  0  0  0  0
    3.4555    9.3505    0.0000 N   0  0  0  0  0  0  0  0  0  0  0  0
    2.1914   10.1581    0.0000 N   0  0  0  0  0  0  0  0  0  0  0  0
    0.8600    9.4671    0.0000 C   0  0  0  0  0  0  0  0  0  0  0  0
   -0.4040   10.2746    0.0000 N   0  0  0  0  0  0  0  0  0  0  0  0
   -0.2250   11.7639    0.0000 C   0  0  0  0  0  0  0  0  0  0  0  0
   -1.2776   12.8324    0.0000 C   0  0  0  0  0  0  0  0  0  0  0  0
   -2.7694   12.6757    0.0000 N   0  0  0  0  0  0  0  0  0  0  0  0
   -3.5770   11.4116    0.0000 C   0  0  0  0  0  0  0  0  0  0  0  0
   -5.0662   11.5907    0.0000 C   0  0  0  0  0  0  0  0  0  0  0  0
   -3.0921    9.9921    0.0000 C   0  0  0  0  0  0  0  0  0  0  0  0
   -1.6801    9.4861    0.0000 C   0  0  0  0  0  0  0  0  0  0  0  0
   11.3807    0.7041    0.0000 C   0  0  0  0  0  0  0  0  0  0  0  0
   11.1571   -0.7791    0.0000 N   0  0  0  0  0  0  0  0  0  0  0  0
  1  2  1  0
  2  3  2  0
  3  4  1  0
  4  5  2  0
  5  6  1  0
  6  7  2  0
  7  8  1  0
  8  9  2  0
  9 10  1  0
 10 11  1  0
 11 12  1  0
 12 13  1  0
 13 14  1  0
 14 15  2  0
 15 16  1  0
 16 17  1  0
 17 18  2  0
 18 19  1  0
 19 20  2  0
 20 21  1  0
 21 22  2  0
 22 23  1  0
 23 24  2  0
 24 25  1  0
 25 26  1  0
 26 27  2  0
 27 28  1  0
 28 29  2  0
 29 30  1  0
 30 31  2  0
 20 32  1  0
 32 33  2  0
 33 34  1  0
 34 35  2  0
 35 36  1  0
 36 37  2  0
 37 38  1  0
 38 39  2  0
 39 40  1  0
 40 41  2  0
 41 42  1  0
 41 43  1  0
 43 44  1  0
 44 45  1  0
 45 46  1  0
 46 47  1  0
 47 48  1  0
 48 49  1  0
 49 50  1  0
 50 51  1  0
 51 52  1  0
 51 53  1  0
 53 54  1  0
  5 55  1  0
 55 56  1  0
 56  2  1  0
 10  6  1  0
 16 11  1  0
 33 17  1  0
 37 34  1  0
 43 38  1  0
 54 47  1  0
 25 21  1  0
 31 26  1  0
M  END
>  <Title>  (677) 
idABAAgen8

$$$$

     RDKit          2D

 26 26  0  0  0  0  0  0  0  0999 V2000
    7.2460    0.0000    0.0000 C   0  0  0  0  0  0  0  0  0  0  0  0
    5.7460    0.0000    0.0000 C   0  0  0  0  0  0  0  0  0  0  0  0
    5.5502   -1.4872    0.0000 C   0  0  0  0  0  0  0  0  0  0  0  0
    4.9762   -2.8730    0.0000 C   0  0  0  0  0  0  0  0  0  0  0  0
    4.0630   -4.0630    0.0000 C   0  0  0  0  0  0  0  0  0  0  0  0
    2.8730   -4.9762    0.0000 C   0  0  0  0  0  0  0  0  0  0  0  0
    1.4872   -5.5502    0.0000 C   0  0  0  0  0  0  0  0  0  0  0  0
    1.8754   -6.9991    0.0000 F   0  0  0  0  0  0  0  0  0  0  0  0
   -0.0000   -5.7460    0.0000 C   0  0  0  0  0  0  0  0  0  0  0  0
   -1.4872   -5.5502    0.0000 C   0  0  0  0  0  0  0  0  0  0  0  0
   -2.8730   -4.9762    0.0000 C   0  0  0  0  0  0  0  0  0  0  0  0
   -4.0630   -4.0630    0.0000 C   0  0  0  0  0  0  0  0  0  0  0  0
   -4.9762   -2.8730    0.0000 C   0  0  0  0  0  0  0  0  0  0  0  0
   -5.5502   -1.4872    0.0000 C   0  0  0  0  0  0  0  0  0  0  0  0
   -5.7460    0.0000    0.0000 C   0  0  0  0  0  0  0  0  0  0  0  0
   -5.5502    1.4872    0.0000 C   0  0  0  0  0  0  0  0  0  0  0  0
   -4.9762    2.8730    0.0000 C   0  0  0  0  0  0  0  0  0  0  0  0
   -4.0630    4.0630    0.0000 C   0  0  0  0  0  0  0  0  0  0  0  0
   -2.8730    4.9762    0.0000 C   0  0  0  0  0  0  0  0  0  0  0  0
   -1.4872    5.5502    0.0000 C   0  0  0  0  0  0  0  0  0  0  0  0
    0.0000    5.7460    0.0000 C   0  0  0  0  0  0  0  0  0  0  0  0
    1.4872    5.5502    0.0000 C   0  0  0  0  0  0  0  0  0  0  0  0
    2.8730    4.9762    0.0000 C   0  0  0  0  0  0  0  0  0  0  0  0
    4.0630    4.0630    0.0000 C   0  0  0  0  0  0  0  0  0  0  0  0
    4.9762    2.8730    0.0000 C   0  0  0  0  0  0  0  0  0  0  0  0
    5.5502    1.4872    0.0000 C   0  0  0  0  0  0  0  0  0  0  0  0
  1  2  1  0
  2  3  2  0
  3  4  1  0
  4  5  2  0
  5  6  1  0
  6  7  2  0
  7  8  1  0
  7  9  1  0
  9 10  2  0
 10 11  1  0
 11 12  2  0
 12 13  1  0
 13 14  2  0
 14 15  1  0
 15 16  2  0
 16 17  1  0
 17 18  2  0
 18 19  1  0
 19 20  2  0
 20 21  1  0
 21 22  2  0
 22 23  1  0
 23 24  2  0
 24 25  1  0
 25 26  2  0
 26  2  1  0
M  END
>  <Title>  (678) 
idABABgen8

$$$$

     RDKit          2D

 30 34  0  0  0  0  0  0  0  0999 V2000
    3.7500   -1.2990    0.0000 C   0  0  0  0  0  0  0  0  0  0  0  0
    3.0000    0.0000    0.0000 O   0  0  0  0  0  0  0  0  0  0  0  0
    1.5000    0.0000    0.0000 C   0  0  0  0  0  0  0  0  0  0  0  0
    0.7500   -1.2990    0.0000 C   0  0  0  0  0  0  0  0  0  0  0  0
   -0.7500   -1.2990    0.0000 C   0  0  0  0  0  0  0  0  0  0  0  0
   -1.5000    0.0000    0.0000 C   0  0  0  0  0  0  0  0  0  0  0  0
   -3.0000    0.0000    0.0000 C   0  0  0  0  0  0  0  0  0  0  0  0
   -3.8817   -1.2135    0.0000 N   0  0  0  0  0  0  0  0  0  0  0  0
   -5.3083   -0.7500    0.0000 N   0  0  0  0  0  0  0  0  0  0  0  0
   -5.3083    0.7500    0.0000 N   0  0  0  0  0  0  0  0  0  0  0  0
   -3.8817    1.2135    0.0000 N   0  0  0  0  0  0  0  0  0  0  0  0
   -3.4182    2.6401    0.0000 C   0  0  0  0  0  0  0  0  0  0  0  0
   -1.9509    2.9520    0.0000 C   0  0  0  0  0  0  0  0  0  0  0  0
   -1.4874    4.3786    0.0000 C   0  0  0  0  0  0  0  0  0  0  0  0
   -2.4911    5.4933    0.0000 C   0  0  0  0  0  0  0  0  0  0  0  0
   -2.0276    6.9199    0.0000 C   0  0  0  0  0  0  0  0  0  0  0  0
   -2.9093    8.1334    0.0000 N   0  0  0  0  0  0  0  0  0  0  0  0
   -2.0276    9.3469    0.0000 N   0  0  0  0  0  0  0  0  0  0  0  0
   -0.6010    8.8834    0.0000 N   0  0  0  0  0  0  0  0  0  0  0  0
   -0.6010    7.3834    0.0000 N   0  0  0  0  0  0  0  0  0  0  0  0
    0.6125    6.5017    0.0000 C   0  0  0  0  0  0  0  0  0  0  0  0
    0.4557    5.0099    0.0000 C   0  0  0  0  0  0  0  0  0  0  0  0
    1.6693    4.1283    0.0000 C   0  0  0  0  0  0  0  0  0  0  0  0
    3.0396    4.7384    0.0000 C   0  0  0  0  0  0  0  0  0  0  0  0
    3.1964    6.2301    0.0000 C   0  0  0  0  0  0  0  0  0  0  0  0
    1.9829    7.1118    0.0000 C   0  0  0  0  0  0  0  0  0  0  0  0
   -3.9583    5.1814    0.0000 C   0  0  0  0  0  0  0  0  0  0  0  0
   -4.4218    3.7548    0.0000 C   0  0  0  0  0  0  0  0  0  0  0  0
   -0.7500    1.2990    0.0000 C   0  0  0  0  0  0  0  0  0  0  0  0
    0.7500    1.2990    0.0000 C   0  0  0  0  0  0  0  0  0  0  0  0
  1  2  1  0
  2  3  1  0
  3  4  2  0
  4  5  1  0
  5  6  2  0
  6  7  1  0
  7  8  2  0
  8  9  1  0
  9 10  2  0
 10 11  1  0
 11 12  1  0
 12 13  2  0
 13 14  1  0
 14 15  2  0
 15 16  1  0
 16 17  2  0
 17 18  1  0
 18 19  2  0
 19 20  1  0
 20 21  1  0
 21 22  2  0
 22 23  1  0
 23 24  2  0
 24 25  1  0
 25 26  2  0
 15 27  1  0
 27 28  2  0
  6 29  1  0
 29 30  2  0
 30  3  1  0
 11  7  1  0
 28 12  1  0
 20 16  1  0
 26 21  1  0
M  END
>  <Title>  (679) 
idABACgen8

$$$$

     RDKit          2D

 15 15  0  0  0  0  0  0  0  0999 V2000
    4.6771   -1.2990    0.0000 C   0  0  0  0  0  0  0  0  0  0  0  0
    3.9271    0.0000    0.0000 O   0  0  0  0  0  0  0  0  0  0  0  0
    2.4271    0.0000    0.0000 C   0  0  0  0  0  0  0  0  0  0  0  0
    1.9635   -1.4266    0.0000 C   0  0  0  0  0  0  0  0  0  0  0  0
    0.7500   -2.3083    0.0000 C   0  0  0  0  0  0  0  0  0  0  0  0
   -0.7500   -2.3083    0.0000 C   0  0  0  0  0  0  0  0  0  0  0  0
   -1.9635   -1.4266    0.0000 C   0  0  0  0  0  0  0  0  0  0  0  0
   -2.4271    0.0000    0.0000 C   0  0  0  0  0  0  0  0  0  0  0  0
   -3.9271    0.0000    0.0000 F   0  0  0  0  0  0  0  0  0  0  0  0
   -1.9635    1.4266    0.0000 C   0  0  0  0  0  0  0  0  0  0  0  0
   -3.1771    2.3083    0.0000 F   0  0  0  0  0  0  0  0  0  0  0  0
   -0.7500    2.3083    0.0000 C   0  0  0  0  0  0  0  0  0  0  0  0
   -1.2135    3.7348    0.0000 F   0  0  0  0  0  0  0  0  0  0  0  0
    0.7500    2.3083    0.0000 C   0  0  0  0  0  0  0  0  0  0  0  0
    1.9635    1.4266    0.0000 C   0  0  0  0  0  0  0  0  0  0  0  0
  1  2  1  0
  2  3  1  0
  3  4  2  0
  4  5  1  0
  5  6  2  0
  6  7  1  0
  7  8  2  0
  8  9  1  0
  8 10  1  0
 10 11  1  0
 10 12  2  0
 12 13  1  0
 12 14  1  0
 14 15  2  0
 15  3  1  0
M  END
>  <Title>  (680) 
idABADgen8

$$$$

     RDKit          2D

 60 64  0  0  0  0  0  0  0  0999 V2000
    8.4368    0.0000    0.0000 C   0  0  0  0  0  0  0  0  0  0  0  0
    6.9368    0.0000    0.0000 C   0  0  0  0  0  0  0  0  0  0  0  0
    6.7746    1.4912    0.0000 C   0  0  0  0  0  0  0  0  0  0  0  0
    6.2957    2.9127    0.0000 C   0  0  0  0  0  0  0  0  0  0  0  0
    5.5223    4.1980    0.0000 C   0  0  0  0  0  0  0  0  0  0  0  0
    4.4908    5.2870    0.0000 C   0  0  0  0  0  0  0  0  0  0  0  0
    3.2493    6.1287    0.0000 C   0  0  0  0  0  0  0  0  0  0  0  0
    1.8558    6.6840    0.0000 C   0  0  0  0  0  0  0  0  0  0  0  0
    0.3756    6.9266    0.0000 C   0  0  0  0  0  0  0  0  0  0  0  0
   -1.1222    6.8454    0.0000 C   0  0  0  0  0  0  0  0  0  0  0  0
   -2.5676    6.4441    0.0000 C   0  0  0  0  0  0  0  0  0  0  0  0
   -3.8928    5.7415    0.0000 C   0  0  0  0  0  0  0  0  0  0  0  0
   -5.0361    4.7704    0.0000 C   0  0  0  0  0  0  0  0  0  0  0  0
   -5.9438    3.5763    0.0000 C   0  0  0  0  0  0  0  0  0  0  0  0
   -6.5737    2.2149    0.0000 C   0  0  0  0  0  0  0  0  0  0  0  0
   -6.8961    0.7500    0.0000 C   0  0  0  0  0  0  0  0  0  0  0  0
   -6.8961   -0.7500    0.0000 C   0  0  0  0  0  0  0  0  0  0  0  0
   -6.5737   -2.2149    0.0000 C   0  0  0  0  0  0  0  0  0  0  0  0
   -5.9438   -3.5763    0.0000 C   0  0  0  0  0  0  0  0  0  0  0  0
   -5.0361   -4.7704    0.0000 C   0  0  0  0  0  0  0  0  0  0  0  0
   -3.8928   -5.7415    0.0000 C   0  0  0  0  0  0  0  0  0  0  0  0
   -2.5676   -6.4441    0.0000 C   0  0  0  0  0  0  0  0  0  0  0  0
   -1.1222   -6.8454    0.0000 C   0  0  0  0  0  0  0  0  0  0  0  0
    0.3756   -6.9266    0.0000 C   0  0  0  0  0  0  0  0  0  0  0  0
    1.8558   -6.6840    0.0000 C   0  0  0  0  0  0  0  0  0  0  0  0
    3.2493   -6.1287    0.0000 C   0  0  0  0  0  0  0  0  0  0  0  0
    4.4908   -5.2870    0.0000 C   0  0  0  0  0  0  0  0  0  0  0  0
    5.5223   -4.1980    0.0000 C   0  0  0  0  0  0  0  0  0  0  0  0
    6.2957   -2.9127    0.0000 C   0  0  0  0  0  0  0  0  0  0  0  0
    6.7746   -1.4912    0.0000 N   0  0  0  0  0  0  0  0  0  0  0  0
    8.1846   -0.9794    0.0000 N   0  0  0  0  0  0  0  0  0  0  0  0
    9.4639   -1.7626    0.0000 N   0  0  0  0  0  0  0  0  0  0  0  0
    9.6491   -3.2512    0.0000 N   0  0  0  0  0  0  0  0  0  0  0  0
    8.6008   -4.3241    0.0000 N   0  0  0  0  0  0  0  0  0  0  0  0
    7.1084   -4.1734    0.0000 N   0  0  0  0  0  0  0  0  0  0  0  0
    6.3252   -5.4527    0.0000 C   0  0  0  0  0  0  0  0  0  0  0  0
    4.8257   -5.4140    0.0000 C   0  0  0  0  0  0  0  0  0  0  0  0
    4.0424   -6.6933    0.0000 C   0  0  0  0  0  0  0  0  0  0  0  0
    4.7586   -8.0112    0.0000 C   0  0  0  0  0  0  0  0  0  0  0  0
    3.9754   -9.2905    0.0000 C   0  0  0  0  0  0  0  0  0  0  0  0
    2.5298   -8.8901    0.0000 O   0  0  0  0  0  0  0  0  0  0  0  0
    4.6916  -10.6084    0.0000 N   0  0  0  0  0  0  0  0  0  0  0  0
    3.9084  -11.8877    0.0000 C   0  0  0  0  0  0  0  0  0  0  0  0
    4.4829  -13.2733    0.0000 N   0  0  0  0  0  0  0  0  0  0  0  0
    3.3427  -14.2479    0.0000 N   0  0  0  0  0  0  0  0  0  0  0  0
    2.0635  -13.4646    0.0000 N   0  0  0  0  0  0  0  0  0  0  0  0
    2.4131  -12.0060    0.0000 N   0  0  0  0  0  0  0  0  0  0  0  0
    1.4384  -10.8657    0.0000 C   0  0  0  0  0  0  0  0  0  0  0  0
    1.9386   -9.4516    0.0000 C   0  0  0  0  0  0  0  0  0  0  0  0
    0.9640   -8.3113    0.0000 C   0  0  0  0  0  0  0  0  0  0  0  0
   -0.5108   -8.5853    0.0000 C   0  0  0  0  0  0  0  0  0  0  0  0
   -1.4854   -7.4450    0.0000 C   0  0  0  0  0  0  0  0  0  0  0  0
   -0.9852   -6.0309    0.0000 O   0  0  0  0  0  0  0  0  0  0  0  0
   -2.9602   -7.7190    0.0000 N   0  0  0  0  0  0  0  0  0  0  0  0
   -3.9348   -6.5787    0.0000 O   0  0  0  0  0  0  0  0  0  0  0  0
   -1.0109   -9.9994    0.0000 C   0  0  0  0  0  0  0  0  0  0  0  0
   -0.0363  -11.1396    0.0000 C   0  0  0  0  0  0  0  0  0  0  0  0
    6.2581   -8.0499    0.0000 C   0  0  0  0  0  0  0  0  0  0  0  0
    6.9744   -9.3678    0.0000 O   0  0  0  0  0  0  0  0  0  0  0  0
    7.0414   -6.7706    0.0000 N   0  0  0  0  0  0  0  0  0  0  0  0
  1  2  1  0
  2  3  2  0
  3  4  1  0
  4  5  2  0
  5  6  1  0
  6  7  2  0
  7  8  1  0
  8  9  2  0
  9 10  1  0
 10 11  2  0
 11 12  1  0
 12 13  2  0
 13 14  1  0
 14 15  2  0
 15 16  1  0
 16 17  2  0
 17 18  1  0
 18 19  2  0
 19 20  1  0
 20 21  2  0
 21 22  1  0
 22 23  2  0
 23 24  1  0
 24 25  2  0
 25 26  1  0
 26 27  2  0
 27 28  1  0
 28 29  2  0
 29 30  1  0
 30 31  1  0
 31 32  2  0
 32 33  1  0
 33 34  2  0
 34 35  1  0
 35 36  1  0
 36 37  2  0
 37 38  1  0
 38 39  2  0
 39 40  1  0
 40 41  2  0
 40 42  1  0
 42 43  1  0
 43 44  2  0
 44 45  1  0
 45 46  2  0
 46 47  1  0
 47 48  1  0
 48 49  2  0
 49 50  1  0
 50 51  2  0
 51 52  1  0
 52 53  2  0
 52 54  1  0
 54 55  1  0
 51 56  1  0
 56 57  1  0
 39 58  1  0
 58 59  2  0
 58 60  1  0
 30  2  1  0
 60 36  1  0
 35 29  1  0
 47 43  1  0
 57 48  1  0
M  END
>  <Title>  (681) 
idABAEgen8

$$$$

     RDKit          2D

 11 11  0  0  0  0  0  0  0  0999 V2000
    5.2500   -1.2990    0.0000 C   0  0  0  0  0  0  0  0  0  0  0  0
    3.7500   -1.2990    0.0000 C   0  0  0  0  0  0  0  0  0  0  0  0
    3.0000   -2.5981    0.0000 O   0  0  0  0  0  0  0  0  0  0  0  0
    3.0000    0.0000    0.0000 N   0  0  0  0  0  0  0  0  0  0  0  0
    1.5000    0.0000    0.0000 C   0  0  0  0  0  0  0  0  0  0  0  0
    0.7500   -1.2990    0.0000 C   0  0  0  0  0  0  0  0  0  0  0  0
   -0.7500   -1.2990    0.0000 C   0  0  0  0  0  0  0  0  0  0  0  0
   -1.5000    0.0000    0.0000 C   0  0  0  0  0  0  0  0  0  0  0  0
   -0.7500    1.2990    0.0000 C   0  0  0  0  0  0  0  0  0  0  0  0
    0.7500    1.2990    0.0000 C   0  0  0  0  0  0  0  0  0  0  0  0
    1.5000    2.5981    0.0000 C   0  0  0  0  0  0  0  0  0  0  0  0
  1  2  1  0
  2  3  2  0
  2  4  1  0
  4  5  1  0
  5  6  2  0
  6  7  1  0
  7  8  2  0
  8  9  1  0
  9 10  2  0
 10 11  1  0
 10  5  1  0
M  END
>  <Title>  (682) 
idABAFgen8

$$$$

     RDKit          2D

 21 22  0  0  0  0  0  0  0  0999 V2000
   -2.7301    7.7586    0.0000 C   0  0  0  0  0  0  0  0  0  0  0  0
   -1.5574    6.8234    0.0000 C   0  0  0  0  0  0  0  0  0  0  0  0
   -0.3846    7.7586    0.0000 C   0  0  0  0  0  0  0  0  0  0  0  0
    1.0777    8.0924    0.0000 C   0  0  0  0  0  0  0  0  0  0  0  0
    2.5401    7.7586    0.0000 C   0  0  0  0  0  0  0  0  0  0  0  0
    3.7129    6.8234    0.0000 C   0  0  0  0  0  0  0  0  0  0  0  0
    4.3637    5.4719    0.0000 C   0  0  0  0  0  0  0  0  0  0  0  0
    4.3637    3.9719    0.0000 C   0  0  0  0  0  0  0  0  0  0  0  0
    3.7129    2.6205    0.0000 C   0  0  0  0  0  0  0  0  0  0  0  0
    2.5401    1.6852    0.0000 N   0  0  0  0  0  0  0  0  0  0  0  0
    1.0777    1.3515    0.0000 C   0  0  0  0  0  0  0  0  0  0  0  0
    1.7286    0.0000    0.0000 C   0  0  0  0  0  0  0  0  0  0  0  0
    1.0777   -1.3515    0.0000 C   0  0  0  0  0  0  0  0  0  0  0  0
   -0.3846   -1.6852    0.0000 C   0  0  0  0  0  0  0  0  0  0  0  0
   -1.5574   -0.7500    0.0000 C   0  0  0  0  0  0  0  0  0  0  0  0
   -1.5574    0.7500    0.0000 C   0  0  0  0  0  0  0  0  0  0  0  0
   -0.3846    1.6852    0.0000 C   0  0  0  0  0  0  0  0  0  0  0  0
   -1.5574    2.6205    0.0000 N   0  0  0  0  0  0  0  0  0  0  0  0
   -2.2082    3.9719    0.0000 C   0  0  0  0  0  0  0  0  0  0  0  0
   -3.6706    3.6381    0.0000 O   0  0  0  0  0  0  0  0  0  0  0  0
   -2.2082    5.4719    0.0000 N   0  0  0  0  0  0  0  0  0  0  0  0
  1  2  1  0
  2  3  2  0
  3  4  1  0
  4  5  2  0
  5  6  2  0
  6  7  2  0
  7  8  1  0
  8  9  2  0
  9 10  1  0
 10 11  2  0
 11 12  1  0
 12 13  2  0
 13 14  1  0
 14 15  2  0
 15 16  1  0
 16 17  2  0
 17 18  1  0
 18 19  1  0
 19 20  2  0
 19 21  1  0
 21  2  1  0
 17 11  1  0
M  END
>  <Title>  (683) 
idABAGgen8

$$$$

     RDKit          2D

 46 52  0  0  0  0  0  0  0  0999 V2000
    2.2041   17.0458    0.0000 C   0  0  0  0  0  0  0  0  0  0  0  0
    2.3609   15.5540    0.0000 C   0  0  0  0  0  0  0  0  0  0  0  0
    1.1474   14.6723    0.0000 C   0  0  0  0  0  0  0  0  0  0  0  0
    1.3041   13.1805    0.0000 C   0  0  0  0  0  0  0  0  0  0  0  0
    2.6745   12.5704    0.0000 C   0  0  0  0  0  0  0  0  0  0  0  0
    2.8313   11.0786    0.0000 C   0  0  0  0  0  0  0  0  0  0  0  0
    4.1303   10.3286    0.0000 N   0  0  0  0  0  0  0  0  0  0  0  0
    3.8184    8.8614    0.0000 N   0  0  0  0  0  0  0  0  0  0  0  0
    2.3266    8.7046    0.0000 N   0  0  0  0  0  0  0  0  0  0  0  0
    1.7165   10.0749    0.0000 N   0  0  0  0  0  0  0  0  0  0  0  0
    0.2493   10.3868    0.0000 C   0  0  0  0  0  0  0  0  0  0  0  0
   -0.2142   11.8134    0.0000 C   0  0  0  0  0  0  0  0  0  0  0  0
   -1.6814   12.1252    0.0000 C   0  0  0  0  0  0  0  0  0  0  0  0
   -2.6851   11.0105    0.0000 C   0  0  0  0  0  0  0  0  0  0  0  0
   -2.2216    9.5839    0.0000 C   0  0  0  0  0  0  0  0  0  0  0  0
   -0.7544    9.2721    0.0000 C   0  0  0  0  0  0  0  0  0  0  0  0
   -0.2908    7.8455    0.0000 C   0  0  0  0  0  0  0  0  0  0  0  0
   -1.5489    7.0285    0.0000 C   0  0  0  0  0  0  0  0  0  0  0  0
   -2.2298    5.6920    0.0000 C   0  0  0  0  0  0  0  0  0  0  0  0
   -2.1513    4.1941    0.0000 C   0  0  0  0  0  0  0  0  0  0  0  0
   -0.7248    4.6576    0.0000 C   0  0  0  0  0  0  0  0  0  0  0  0
    0.6118    3.9766    0.0000 C   0  0  0  0  0  0  0  0  0  0  0  0
    1.7524    4.9508    0.0000 O   0  0  0  0  0  0  0  0  0  0  0  0
    1.0753    2.5500    0.0000 C   0  0  0  0  0  0  0  0  0  0  0  0
    2.7581    3.1506    0.0000 C   0  0  0  0  0  0  0  0  0  0  0  0
    3.4391    4.4871    0.0000 C   0  0  0  0  0  0  0  0  0  0  0  0
    3.3606    5.9850    0.0000 C   0  0  0  0  0  0  0  0  0  0  0  0
    4.7871    6.4485    0.0000 C   0  0  0  0  0  0  0  0  0  0  0  0
    5.9019    5.4448    0.0000 C   0  0  0  0  0  0  0  0  0  0  0  0
    7.3285    5.9084    0.0000 C   0  0  0  0  0  0  0  0  0  0  0  0
    7.6403    7.3756    0.0000 C   0  0  0  0  0  0  0  0  0  0  0  0
    6.5256    8.3793    0.0000 C   0  0  0  0  0  0  0  0  0  0  0  0
    5.0990    7.9158    0.0000 C   0  0  0  0  0  0  0  0  0  0  0  0
    2.5436    7.2430    0.0000 C   0  0  0  0  0  0  0  0  0  0  0  0
    1.2071    7.9240    0.0000 C   0  0  0  0  0  0  0  0  0  0  0  0
    0.3943    1.2135    0.0000 N   0  0  0  0  0  0  0  0  0  0  0  0
    1.2760    0.0000    0.0000 N   0  0  0  0  0  0  0  0  0  0  0  0
    0.3943   -1.2135    0.0000 N   0  0  0  0  0  0  0  0  0  0  0  0
   -1.0323   -0.7500    0.0000 N   0  0  0  0  0  0  0  0  0  0  0  0
   -1.0323    0.7500    0.0000 C   0  0  0  0  0  0  0  0  0  0  0  0
   -2.3688    1.4310    0.0000 N   0  0  0  0  0  0  0  0  0  0  0  0
   -2.8323    2.8576    0.0000 C   0  0  0  0  0  0  0  0  0  0  0  0
   -4.3277    2.9753    0.0000 O   0  0  0  0  0  0  0  0  0  0  0  0
    3.8880   13.4521    0.0000 C   0  0  0  0  0  0  0  0  0  0  0  0
    5.2583   12.8420    0.0000 O   0  0  0  0  0  0  0  0  0  0  0  0
    3.7312   14.9439    0.0000 N   0  0  0  0  0  0  0  0  0  0  0  0
  1  2  1  0
  2  3  2  0
  3  4  1  0
  4  5  2  0
  5  6  1  0
  6  7  2  0
  7  8  1  0
  8  9  2  0
  9 10  1  0
 10 11  1  0
 11 12  1  0
 12 13  1  0
 13 14  1  0
 14 15  1  0
 15 16  1  0
 16 17  1  0
 17 18  2  0
 18 19  1  0
 19 20  2  0
 20 21  1  0
 21 22  2  0
 22 23  1  0
 22 24  1  0
 24 25  2  0
 25 26  1  0
 26 27  2  0
 27 28  1  0
 28 29  2  0
 29 30  1  0
 30 31  2  0
 31 32  1  0
 32 33  2  0
 27 34  1  0
 34 35  2  0
 24 36  1  0
 36 37  1  0
 37 38  2  0
 38 39  1  0
 39 40  2  0
 40 41  1  0
 41 42  1  0
 42 43  2  0
  5 44  1  0
 44 45  2  0
 44 46  1  0
 46  2  1  0
 10  6  1  0
 16 11  1  0
 35 17  1  0
 40 36  1  0
 42 20  1  0
 33 28  1  0
M  END
>  <Title>  (684) 
idABAHgen8

$$$$

     RDKit          2D

 50 57  0  0  0  0  0  0  0  0999 V2000
    0.8311   10.2038    0.0000 C   0  0  0  0  0  0  0  0  0  0  0  0
   -0.5392    9.5937    0.0000 C   0  0  0  0  0  0  0  0  0  0  0  0
   -1.7527   10.4753    0.0000 C   0  0  0  0  0  0  0  0  0  0  0  0
   -3.1230    9.8652    0.0000 C   0  0  0  0  0  0  0  0  0  0  0  0
   -3.2798    8.3735    0.0000 C   0  0  0  0  0  0  0  0  0  0  0  0
   -4.6502    7.7634    0.0000 C   0  0  0  0  0  0  0  0  0  0  0  0
   -5.9492    8.5134    0.0000 N   0  0  0  0  0  0  0  0  0  0  0  0
   -7.0639    7.5097    0.0000 N   0  0  0  0  0  0  0  0  0  0  0  0
   -6.4538    6.1393    0.0000 N   0  0  0  0  0  0  0  0  0  0  0  0
   -4.9620    6.2961    0.0000 N   0  0  0  0  0  0  0  0  0  0  0  0
   -3.9583    5.1814    0.0000 C   0  0  0  0  0  0  0  0  0  0  0  0
   -2.4911    5.4933    0.0000 C   0  0  0  0  0  0  0  0  0  0  0  0
   -1.4874    4.3786    0.0000 C   0  0  0  0  0  0  0  0  0  0  0  0
   -1.9509    2.9520    0.0000 C   0  0  0  0  0  0  0  0  0  0  0  0
   -3.4182    2.6401    0.0000 C   0  0  0  0  0  0  0  0  0  0  0  0
   -4.4218    3.7548    0.0000 C   0  0  0  0  0  0  0  0  0  0  0  0
   -5.8891    3.4430    0.0000 C   0  0  0  0  0  0  0  0  0  0  0  0
   -6.8928    4.5577    0.0000 C   0  0  0  0  0  0  0  0  0  0  0  0
   -8.3600    4.2458    0.0000 C   0  0  0  0  0  0  0  0  0  0  0  0
   -8.8235    2.8192    0.0000 C   0  0  0  0  0  0  0  0  0  0  0  0
  -10.2907    2.5074    0.0000 C   0  0  0  0  0  0  0  0  0  0  0  0
  -10.9008    1.1370    0.0000 N   0  0  0  0  0  0  0  0  0  0  0  0
  -12.3926    1.2938    0.0000 N   0  0  0  0  0  0  0  0  0  0  0  0
  -12.7045    2.7611    0.0000 N   0  0  0  0  0  0  0  0  0  0  0  0
  -11.4055    3.5111    0.0000 N   0  0  0  0  0  0  0  0  0  0  0  0
  -11.2487    5.0028    0.0000 C   0  0  0  0  0  0  0  0  0  0  0  0
   -9.8783    5.6129    0.0000 C   0  0  0  0  0  0  0  0  0  0  0  0
   -9.7215    7.1047    0.0000 C   0  0  0  0  0  0  0  0  0  0  0  0
  -10.9351    7.9864    0.0000 C   0  0  0  0  0  0  0  0  0  0  0  0
  -10.7783    9.4782    0.0000 C   0  0  0  0  0  0  0  0  0  0  0  0
  -12.3054    7.3763    0.0000 C   0  0  0  0  0  0  0  0  0  0  0  0
  -12.4622    5.8845    0.0000 C   0  0  0  0  0  0  0  0  0  0  0  0
  -13.8325    5.2744    0.0000 C   0  0  0  0  0  0  0  0  0  0  0  0
  -15.0460    6.1561    0.0000 C   0  0  0  0  0  0  0  0  0  0  0  0
  -16.4163    5.5460    0.0000 C   0  0  0  0  0  0  0  0  0  0  0  0
  -16.5731    4.0542    0.0000 C   0  0  0  0  0  0  0  0  0  0  0  0
  -15.3596    3.1725    0.0000 C   0  0  0  0  0  0  0  0  0  0  0  0
  -13.9893    3.7826    0.0000 C   0  0  0  0  0  0  0  0  0  0  0  0
   -7.8198    1.7045    0.0000 C   0  0  0  0  0  0  0  0  0  0  0  0
   -6.3526    2.0164    0.0000 C   0  0  0  0  0  0  0  0  0  0  0  0
   -5.3489    0.9017    0.0000 C   0  0  0  0  0  0  0  0  0  0  0  0
   -5.8124   -0.5249    0.0000 C   0  0  0  0  0  0  0  0  0  0  0  0
   -4.8087   -1.6396    0.0000 C   0  0  0  0  0  0  0  0  0  0  0  0
   -3.3415   -1.3278    0.0000 C   0  0  0  0  0  0  0  0  0  0  0  0
   -2.3378   -2.4425    0.0000 C   0  0  0  0  0  0  0  0  0  0  0  0
   -2.8780    0.0988    0.0000 C   0  0  0  0  0  0  0  0  0  0  0  0
   -1.4108    0.4107    0.0000 O   0  0  0  0  0  0  0  0  0  0  0  0
   -3.8817    1.2135    0.0000 N   0  0  0  0  0  0  0  0  0  0  0  0
   -2.0663    7.4918    0.0000 N   0  0  0  0  0  0  0  0  0  0  0  0
   -0.6960    8.1019    0.0000 C   0  0  0  0  0  0  0  0  0  0  0  0
  1  2  1  0
  2  3  2  0
  3  4  1  0
  4  5  2  0
  5  6  1  0
  6  7  2  0
  7  8  1  0
  8  9  2  0
  9 10  1  0
 10 11  1  0
 11 12  1  0
 12 13  1  0
 13 14  1  0
 14 15  1  0
 15 16  1  0
 16 17  1  0
 17 18  2  0
 18 19  1  0
 19 20  2  0
 20 21  1  0
 21 22  2  0
 22 23  1  0
 23 24  2  0
 24 25  1  0
 25 26  1  0
 26 27  2  0
 27 28  1  0
 28 29  2  0
 29 30  1  0
 29 31  1  0
 31 32  2  0
 32 33  1  0
 33 34  2  0
 34 35  1  0
 35 36  2  0
 36 37  1  0
 37 38  2  0
 20 39  1  0
 39 40  2  0
 40 41  1  0
 41 42  2  0
 42 43  1  0
 43 44  2  0
 44 45  1  0
 44 46  1  0
 46 47  2  0
 46 48  1  0
  5 49  1  0
 49 50  1  0
 50  2  1  0
 10  6  1  0
 16 11  1  0
 40 17  1  0
 48 41  1  0
 25 21  1  0
 32 26  1  0
 38 33  1  0
M  END
>  <Title>  (685) 
idABAIgen8

$$$$

     RDKit          2D

 29 32  0  0  0  0  0  0  0  0999 V2000
    3.0000    0.0000    0.0000 C   0  0  0  0  0  0  0  0  0  0  0  0
    1.5000    0.0000    0.0000 C   0  0  0  0  0  0  0  0  0  0  0  0
    0.7500   -1.2990    0.0000 C   0  0  0  0  0  0  0  0  0  0  0  0
   -0.7500   -1.2990    0.0000 C   0  0  0  0  0  0  0  0  0  0  0  0
   -1.5000    0.0000    0.0000 C   0  0  0  0  0  0  0  0  0  0  0  0
   -3.0000    0.0000    0.0000 C   0  0  0  0  0  0  0  0  0  0  0  0
   -3.8817   -1.2135    0.0000 N   0  0  0  0  0  0  0  0  0  0  0  0
   -5.3083   -0.7500    0.0000 N   0  0  0  0  0  0  0  0  0  0  0  0
   -5.3083    0.7500    0.0000 N   0  0  0  0  0  0  0  0  0  0  0  0
   -3.8817    1.2135    0.0000 N   0  0  0  0  0  0  0  0  0  0  0  0
   -3.4182    2.6401    0.0000 C   0  0  0  0  0  0  0  0  0  0  0  0
   -1.9509    2.9520    0.0000 C   0  0  0  0  0  0  0  0  0  0  0  0
   -1.4874    4.3786    0.0000 C   0  0  0  0  0  0  0  0  0  0  0  0
   -2.4911    5.4933    0.0000 C   0  0  0  0  0  0  0  0  0  0  0  0
   -2.0276    6.9199    0.0000 C   0  0  0  0  0  0  0  0  0  0  0  0
   -0.5604    7.2317    0.0000 C   0  0  0  0  0  0  0  0  0  0  0  0
   -0.0968    8.6583    0.0000 C   0  0  0  0  0  0  0  0  0  0  0  0
   -1.1005    9.7730    0.0000 C   0  0  0  0  0  0  0  0  0  0  0  0
   -0.6370   11.1996    0.0000 C   0  0  0  0  0  0  0  0  0  0  0  0
   -1.6407   12.3143    0.0000 O   0  0  0  0  0  0  0  0  0  0  0  0
    0.8302   11.5115    0.0000 N   0  0  0  0  0  0  0  0  0  0  0  0
    1.2937   12.9381    0.0000 O   0  0  0  0  0  0  0  0  0  0  0  0
   -2.5677    9.4612    0.0000 C   0  0  0  0  0  0  0  0  0  0  0  0
   -3.0313    8.0346    0.0000 C   0  0  0  0  0  0  0  0  0  0  0  0
   -3.9583    5.1814    0.0000 C   0  0  0  0  0  0  0  0  0  0  0  0
   -4.9620    6.2961    0.0000 O   0  0  0  0  0  0  0  0  0  0  0  0
   -4.4218    3.7548    0.0000 N   0  0  0  0  0  0  0  0  0  0  0  0
   -0.7500    1.2990    0.0000 N   0  0  0  0  0  0  0  0  0  0  0  0
    0.7500    1.2990    0.0000 C   0  0  0  0  0  0  0  0  0  0  0  0
  1  2  1  0
  2  3  2  0
  3  4  1  0
  4  5  2  0
  5  6  1  0
  6  7  2  0
  7  8  1  0
  8  9  2  0
  9 10  1  0
 10 11  1  0
 11 12  2  0
 12 13  1  0
 13 14  2  0
 14 15  1  0
 15 16  2  0
 16 17  1  0
 17 18  2  0
 18 19  1  0
 19 20  2  0
 19 21  1  0
 21 22  1  0
 18 23  1  0
 23 24  1  0
 14 25  1  0
 25 26  2  0
 25 27  1  0
  5 28  1  0
 28 29  1  0
 29  2  1  0
 10  6  1  0
 27 11  1  0
 24 15  1  0
M  END
>  <Title>  (686) 
idABAJgen8

$$$$

     RDKit          2D

 24 26  0  0  0  0  0  0  0  0999 V2000
    3.0000    0.0000    0.0000 C   0  0  0  0  0  0  0  0  0  0  0  0
    1.5000    0.0000    0.0000 C   0  0  0  0  0  0  0  0  0  0  0  0
    0.7500    1.2990    0.0000 C   0  0  0  0  0  0  0  0  0  0  0  0
   -0.7500    1.2990    0.0000 C   0  0  0  0  0  0  0  0  0  0  0  0
   -1.5000    0.0000    0.0000 C   0  0  0  0  0  0  0  0  0  0  0  0
   -3.0000    0.0000    0.0000 C   0  0  0  0  0  0  0  0  0  0  0  0
   -3.8817   -1.2135    0.0000 N   0  0  0  0  0  0  0  0  0  0  0  0
   -5.3083   -0.7500    0.0000 N   0  0  0  0  0  0  0  0  0  0  0  0
   -5.3083    0.7500    0.0000 N   0  0  0  0  0  0  0  0  0  0  0  0
   -3.8817    1.2135    0.0000 N   0  0  0  0  0  0  0  0  0  0  0  0
   -3.4182    2.6401    0.0000 C   0  0  0  0  0  0  0  0  0  0  0  0
   -1.9509    2.9520    0.0000 C   0  0  0  0  0  0  0  0  0  0  0  0
   -1.4874    4.3786    0.0000 C   0  0  0  0  0  0  0  0  0  0  0  0
   -2.4911    5.4933    0.0000 C   0  0  0  0  0  0  0  0  0  0  0  0
   -2.0276    6.9199    0.0000 C   0  0  0  0  0  0  0  0  0  0  0  0
   -3.0313    8.0346    0.0000 O   0  0  0  0  0  0  0  0  0  0  0  0
   -0.5604    7.2317    0.0000 N   0  0  0  0  0  0  0  0  0  0  0  0
   -0.0968    8.6583    0.0000 O   0  0  0  0  0  0  0  0  0  0  0  0
   -3.9583    5.1814    0.0000 C   0  0  0  0  0  0  0  0  0  0  0  0
   -4.9620    6.2961    0.0000 C   0  0  0  0  0  0  0  0  0  0  0  0
   -4.4218    3.7548    0.0000 C   0  0  0  0  0  0  0  0  0  0  0  0
   -0.7500   -1.2990    0.0000 C   0  0  0  0  0  0  0  0  0  0  0  0
   -1.5000   -2.5981    0.0000 O   0  0  0  0  0  0  0  0  0  0  0  0
    0.7500   -1.2990    0.0000 N   0  0  0  0  0  0  0  0  0  0  0  0
  1  2  1  0
  2  3  2  0
  3  4  1  0
  4  5  2  0
  5  6  1  0
  6  7  2  0
  7  8  1  0
  8  9  2  0
  9 10  1  0
 10 11  1  0
 11 12  2  0
 12 13  1  0
 13 14  2  0
 14 15  1  0
 15 16  2  0
 15 17  1  0
 17 18  1  0
 14 19  1  0
 19 20  1  0
 19 21  2  0
  5 22  1  0
 22 23  2  0
 22 24  1  0
 24  2  1  0
 10  6  1  0
 21 11  1  0
M  END
>  <Title>  (687) 
idABAKgen8

$$$$

     RDKit          2D

 27 29  0  0  0  0  0  0  0  0999 V2000
    3.0000    0.0000    0.0000 C   0  0  0  0  0  0  0  0  0  0  0  0
    1.5000    0.0000    0.0000 C   0  0  0  0  0  0  0  0  0  0  0  0
    0.7500   -1.2990    0.0000 C   0  0  0  0  0  0  0  0  0  0  0  0
   -0.7500   -1.2990    0.0000 C   0  0  0  0  0  0  0  0  0  0  0  0
   -1.5000    0.0000    0.0000 C   0  0  0  0  0  0  0  0  0  0  0  0
   -3.0000    0.0000    0.0000 C   0  0  0  0  0  0  0  0  0  0  0  0
   -3.7500    1.2990    0.0000 C   0  0  0  0  0  0  0  0  0  0  0  0
   -5.2500    1.2990    0.0000 C   0  0  0  0  0  0  0  0  0  0  0  0
   -6.0000    0.0000    0.0000 C   0  0  0  0  0  0  0  0  0  0  0  0
   -7.5000    0.0000    0.0000 C   0  0  0  0  0  0  0  0  0  0  0  0
   -5.2500   -1.2990    0.0000 C   0  0  0  0  0  0  0  0  0  0  0  0
   -6.0000   -2.5981    0.0000 O   0  0  0  0  0  0  0  0  0  0  0  0
   -3.7500   -1.2990    0.0000 N   0  0  0  0  0  0  0  0  0  0  0  0
   -3.0000   -2.5981    0.0000 C   0  0  0  0  0  0  0  0  0  0  0  0
   -1.5000   -2.5981    0.0000 C   0  0  0  0  0  0  0  0  0  0  0  0
   -0.7500   -3.8971    0.0000 C   0  0  0  0  0  0  0  0  0  0  0  0
   -1.5000   -5.1962    0.0000 C   0  0  0  0  0  0  0  0  0  0  0  0
   -0.7500   -6.4952    0.0000 C   0  0  0  0  0  0  0  0  0  0  0  0
   -1.5000   -7.7942    0.0000 O   0  0  0  0  0  0  0  0  0  0  0  0
    0.7500   -6.4952    0.0000 N   0  0  0  0  0  0  0  0  0  0  0  0
    1.5000   -7.7942    0.0000 O   0  0  0  0  0  0  0  0  0  0  0  0
   -3.0000   -5.1962    0.0000 C   0  0  0  0  0  0  0  0  0  0  0  0
   -3.7500   -3.8971    0.0000 C   0  0  0  0  0  0  0  0  0  0  0  0
   -5.2500   -3.8971    0.0000 O   0  0  0  0  0  0  0  0  0  0  0  0
   -0.7500    1.2990    0.0000 N   0  0  0  0  0  0  0  0  0  0  0  0
    0.7500    1.2990    0.0000 C   0  0  0  0  0  0  0  0  0  0  0  0
    1.5000    2.5981    0.0000 O   0  0  0  0  0  0  0  0  0  0  0  0
  1  2  1  0
  2  3  2  0
  3  4  1  0
  4  5  2  0
  5  6  1  0
  6  7  2  0
  7  8  1  0
  8  9  2  0
  9 10  1  0
  9 11  1  0
 11 12  2  0
 11 13  1  0
 13 14  1  0
 14 15  2  0
 15 16  1  0
 16 17  2  0
 17 18  1  0
 18 19  2  0
 18 20  1  0
 20 21  1  0
 17 22  1  0
 22 23  1  0
 23 24  2  0
  5 25  1  0
 25 26  1  0
 26 27  2  0
 26  2  1  0
 13  6  1  0
 23 14  1  0
M  END
>  <Title>  (688) 
idABALgen8

$$$$

     RDKit          2D

 56 64  0  0  0  0  0  0  0  0999 V2000
    3.0000    0.0000    0.0000 C   0  0  0  0  0  0  0  0  0  0  0  0
    1.5000    0.0000    0.0000 C   0  0  0  0  0  0  0  0  0  0  0  0
    0.7500   -1.2990    0.0000 C   0  0  0  0  0  0  0  0  0  0  0  0
   -0.7500   -1.2990    0.0000 C   0  0  0  0  0  0  0  0  0  0  0  0
   -1.5000    0.0000    0.0000 C   0  0  0  0  0  0  0  0  0  0  0  0
   -3.0000    0.0000    0.0000 C   0  0  0  0  0  0  0  0  0  0  0  0
   -3.8817   -1.2135    0.0000 N   0  0  0  0  0  0  0  0  0  0  0  0
   -5.3083   -0.7500    0.0000 N   0  0  0  0  0  0  0  0  0  0  0  0
   -5.3083    0.7500    0.0000 N   0  0  0  0  0  0  0  0  0  0  0  0
   -3.8817    1.2135    0.0000 N   0  0  0  0  0  0  0  0  0  0  0  0
   -3.4182    2.6401    0.0000 C   0  0  0  0  0  0  0  0  0  0  0  0
   -1.9509    2.9520    0.0000 C   0  0  0  0  0  0  0  0  0  0  0  0
   -1.4874    4.3786    0.0000 C   0  0  0  0  0  0  0  0  0  0  0  0
   -2.4911    5.4933    0.0000 C   0  0  0  0  0  0  0  0  0  0  0  0
   -3.9583    5.1814    0.0000 C   0  0  0  0  0  0  0  0  0  0  0  0
   -4.4218    3.7548    0.0000 C   0  0  0  0  0  0  0  0  0  0  0  0
   -5.8891    3.4430    0.0000 C   0  0  0  0  0  0  0  0  0  0  0  0
   -6.4992    2.0726    0.0000 N   0  0  0  0  0  0  0  0  0  0  0  0
   -7.9910    2.2294    0.0000 N   0  0  0  0  0  0  0  0  0  0  0  0
   -8.3028    3.6967    0.0000 N   0  0  0  0  0  0  0  0  0  0  0  0
   -7.0038    4.4467    0.0000 N   0  0  0  0  0  0  0  0  0  0  0  0
   -6.8470    5.9384    0.0000 C   0  0  0  0  0  0  0  0  0  0  0  0
   -5.4767    6.5485    0.0000 C   0  0  0  0  0  0  0  0  0  0  0  0
   -5.3199    8.0403    0.0000 C   0  0  0  0  0  0  0  0  0  0  0  0
   -6.5334    8.9220    0.0000 C   0  0  0  0  0  0  0  0  0  0  0  0
   -6.3766   10.4138    0.0000 C   0  0  0  0  0  0  0  0  0  0  0  0
   -7.4913   11.4175    0.0000 N   0  0  0  0  0  0  0  0  0  0  0  0
   -6.8812   12.7878    0.0000 N   0  0  0  0  0  0  0  0  0  0  0  0
   -5.3894   12.6310    0.0000 N   0  0  0  0  0  0  0  0  0  0  0  0
   -5.0776   11.1638    0.0000 N   0  0  0  0  0  0  0  0  0  0  0  0
   -3.7073   10.5537    0.0000 C   0  0  0  0  0  0  0  0  0  0  0  0
   -3.5505    9.0619    0.0000 C   0  0  0  0  0  0  0  0  0  0  0  0
   -2.1801    8.4518    0.0000 C   0  0  0  0  0  0  0  0  0  0  0  0
   -0.9666    9.3335    0.0000 C   0  0  0  0  0  0  0  0  0  0  0  0
   -1.1234   10.8253    0.0000 C   0  0  0  0  0  0  0  0  0  0  0  0
   -2.4937   11.4354    0.0000 C   0  0  0  0  0  0  0  0  0  0  0  0
   -7.9037    8.3119    0.0000 C   0  0  0  0  0  0  0  0  0  0  0  0
   -8.0605    6.8201    0.0000 C   0  0  0  0  0  0  0  0  0  0  0  0
   -9.4308    6.2100    0.0000 N   0  0  0  0  0  0  0  0  0  0  0  0
   -9.7427    4.7428    0.0000 C   0  0  0  0  0  0  0  0  0  0  0  0
  -11.2345    4.5860    0.0000 C   0  0  0  0  0  0  0  0  0  0  0  0
  -11.8446    5.9563    0.0000 C   0  0  0  0  0  0  0  0  0  0  0  0
  -10.7299    6.9600    0.0000 C   0  0  0  0  0  0  0  0  0  0  0  0
  -10.8867    8.4518    0.0000 C   0  0  0  0  0  0  0  0  0  0  0  0
   -9.6731    9.3335    0.0000 C   0  0  0  0  0  0  0  0  0  0  0  0
   -9.8299   10.8253    0.0000 C   0  0  0  0  0  0  0  0  0  0  0  0
  -11.2003   11.4354    0.0000 C   0  0  0  0  0  0  0  0  0  0  0  0
  -11.3570   12.9271    0.0000 C   0  0  0  0  0  0  0  0  0  0  0  0
  -12.7274   13.5372    0.0000 O   0  0  0  0  0  0  0  0  0  0  0  0
  -10.1435   13.8088    0.0000 N   0  0  0  0  0  0  0  0  0  0  0  0
  -10.3003   15.3006    0.0000 O   0  0  0  0  0  0  0  0  0  0  0  0
  -12.4138   10.5537    0.0000 C   0  0  0  0  0  0  0  0  0  0  0  0
  -13.7841   11.1638    0.0000 O   0  0  0  0  0  0  0  0  0  0  0  0
  -12.2570    9.0619    0.0000 N   0  0  0  0  0  0  0  0  0  0  0  0
   -0.7500    1.2990    0.0000 N   0  0  0  0  0  0  0  0  0  0  0  0
    0.7500    1.2990    0.0000 N   0  0  0  0  0  0  0  0  0  0  0  0
  1  2  1  0
  2  3  2  0
  3  4  1  0
  4  5  2  0
  5  6  1  0
  6  7  2  0
  7  8  1  0
  8  9  2  0
  9 10  1  0
 10 11  1  0
 11 12  1  0
 12 13  1  0
 13 14  1  0
 14 15  1  0
 15 16  1  0
 16 17  1  0
 17 18  2  0
 18 19  1  0
 19 20  2  0
 20 21  1  0
 21 22  1  0
 22 23  2  0
 23 24  1  0
 24 25  2  0
 25 26  1  0
 26 27  2  0
 27 28  1  0
 28 29  2  0
 29 30  1  0
 30 31  1  0
 31 32  2  0
 32 33  1  0
 33 34  2  0
 34 35  1  0
 35 36  2  0
 25 37  1  0
 37 38  2  0
 38 39  1  0
 39 40  1  0
 40 41  2  0
 41 42  1  0
 42 43  2  0
 43 44  1  0
 44 45  2  0
 45 46  1  0
 46 47  2  0
 47 48  1  0
 48 49  2  0
 48 50  1  0
 50 51  1  0
 47 52  1  0
 52 53  2  0
 52 54  1  0
  5 55  1  0
 55 56  1  0
 56  2  1  0
 10  6  1  0
 16 11  1  0
 21 17  1  0
 38 22  1  0
 43 39  1  0
 54 44  1  0
 30 26  1  0
 36 31  1  0
M  END
>  <Title>  (689) 
idABAMgen8

$$$$

     RDKit          2D

 28 28  0  0  0  0  0  0  0  0999 V2000
    7.7222    0.0000    0.0000 C   0  0  0  0  0  0  0  0  0  0  0  0
    6.2222    0.0000    0.0000 C   0  0  0  0  0  0  0  0  0  0  0  0
    6.0414   -1.4891    0.0000 C   0  0  0  0  0  0  0  0  0  0  0  0
    5.5095   -2.8916    0.0000 C   0  0  0  0  0  0  0  0  0  0  0  0
    4.6574   -4.1261    0.0000 C   0  0  0  0  0  0  0  0  0  0  0  0
    3.5346   -5.1207    0.0000 C   0  0  0  0  0  0  0  0  0  0  0  0
    2.2064   -5.8178    0.0000 C   0  0  0  0  0  0  0  0  0  0  0  0
    0.7500   -6.1768    0.0000 C   0  0  0  0  0  0  0  0  0  0  0  0
   -0.7500   -6.1768    0.0000 C   0  0  0  0  0  0  0  0  0  0  0  0
   -2.2064   -5.8178    0.0000 C   0  0  0  0  0  0  0  0  0  0  0  0
   -3.5346   -5.1207    0.0000 C   0  0  0  0  0  0  0  0  0  0  0  0
   -4.6574   -4.1261    0.0000 C   0  0  0  0  0  0  0  0  0  0  0  0
   -5.5095   -2.8916    0.0000 C   0  0  0  0  0  0  0  0  0  0  0  0
   -6.0414   -1.4891    0.0000 C   0  0  0  0  0  0  0  0  0  0  0  0
   -6.2222    0.0000    0.0000 C   0  0  0  0  0  0  0  0  0  0  0  0
   -6.0414    1.4891    0.0000 C   0  0  0  0  0  0  0  0  0  0  0  0
   -5.5095    2.8916    0.0000 C   0  0  0  0  0  0  0  0  0  0  0  0
   -4.6574    4.1261    0.0000 C   0  0  0  0  0  0  0  0  0  0  0  0
   -3.5346    5.1207    0.0000 C   0  0  0  0  0  0  0  0  0  0  0  0
   -2.2064    5.8178    0.0000 C   0  0  0  0  0  0  0  0  0  0  0  0
   -0.7500    6.1768    0.0000 C   0  0  0  0  0  0  0  0  0  0  0  0
    0.7500    6.1768    0.0000 C   0  0  0  0  0  0  0  0  0  0  0  0
    2.2064    5.8178    0.0000 C   0  0  0  0  0  0  0  0  0  0  0  0
    3.5346    5.1207    0.0000 C   0  0  0  0  0  0  0  0  0  0  0  0
    4.6574    4.1261    0.0000 C   0  0  0  0  0  0  0  0  0  0  0  0
    5.7801    5.1207    0.0000 C   0  0  0  0  0  0  0  0  0  0  0  0
    5.5095    2.8916    0.0000 C   0  0  0  0  0  0  0  0  0  0  0  0
    6.0414    1.4891    0.0000 C   0  0  0  0  0  0  0  0  0  0  0  0
  1  2  1  0
  2  3  2  0
  3  4  1  0
  4  5  2  0
  5  6  1  0
  6  7  2  0
  7  8  1  0
  8  9  2  0
  9 10  1  0
 10 11  2  0
 11 12  1  0
 12 13  2  0
 13 14  1  0
 14 15  2  0
 15 16  1  0
 16 17  2  0
 17 18  1  0
 18 19  2  0
 19 20  1  0
 20 21  2  0
 21 22  1  0
 22 23  2  0
 23 24  1  0
 24 25  2  0
 25 26  1  0
 25 27  1  0
 27 28  2  0
 28  2  1  0
M  END
>  <Title>  (690) 
idABANgen8

$$$$

     RDKit          2D

 30 33  0  0  0  0  0  0  0  0999 V2000
    3.2286   -0.0000    0.0000 C   0  0  0  0  0  0  0  0  0  0  0  0
    1.7286    0.0000    0.0000 C   0  0  0  0  0  0  0  0  0  0  0  0
    1.0777    1.3515    0.0000 C   0  0  0  0  0  0  0  0  0  0  0  0
   -0.3846    1.6852    0.0000 C   0  0  0  0  0  0  0  0  0  0  0  0
   -1.5574    0.7500    0.0000 C   0  0  0  0  0  0  0  0  0  0  0  0
   -2.9088    1.4008    0.0000 C   0  0  0  0  0  0  0  0  0  0  0  0
   -4.2297    0.6900    0.0000 N   0  0  0  0  0  0  0  0  0  0  0  0
   -5.3139    1.7266    0.0000 N   0  0  0  0  0  0  0  0  0  0  0  0
   -4.6631    3.0781    0.0000 N   0  0  0  0  0  0  0  0  0  0  0  0
   -3.1767    2.8767    0.0000 N   0  0  0  0  0  0  0  0  0  0  0  0
   -2.1401    3.9609    0.0000 C   0  0  0  0  0  0  0  0  0  0  0  0
   -0.6829    3.6053    0.0000 C   0  0  0  0  0  0  0  0  0  0  0  0
    0.3537    4.6895    0.0000 C   0  0  0  0  0  0  0  0  0  0  0  0
   -0.0669    6.1293    0.0000 C   0  0  0  0  0  0  0  0  0  0  0  0
   -1.5241    6.4849    0.0000 C   0  0  0  0  0  0  0  0  0  0  0  0
   -2.5607    5.4007    0.0000 C   0  0  0  0  0  0  0  0  0  0  0  0
   -4.0180    5.7563    0.0000 C   0  0  0  0  0  0  0  0  0  0  0  0
   -5.0546    4.6722    0.0000 C   0  0  0  0  0  0  0  0  0  0  0  0
   -6.5118    5.0278    0.0000 C   0  0  0  0  0  0  0  0  0  0  0  0
   -6.9324    6.4676    0.0000 C   0  0  0  0  0  0  0  0  0  0  0  0
   -8.3897    6.8232    0.0000 C   0  0  0  0  0  0  0  0  0  0  0  0
   -8.8103    8.2630    0.0000 O   0  0  0  0  0  0  0  0  0  0  0  0
   -9.4263    5.7390    0.0000 N   0  0  0  0  0  0  0  0  0  0  0  0
  -10.8835    6.0946    0.0000 O   0  0  0  0  0  0  0  0  0  0  0  0
   -5.8958    7.5518    0.0000 N   0  0  0  0  0  0  0  0  0  0  0  0
   -4.4386    7.1962    0.0000 C   0  0  0  0  0  0  0  0  0  0  0  0
   -3.4020    8.2804    0.0000 O   0  0  0  0  0  0  0  0  0  0  0  0
   -1.5574   -0.7500    0.0000 N   0  0  0  0  0  0  0  0  0  0  0  0
   -0.3846   -1.6852    0.0000 C   0  0  0  0  0  0  0  0  0  0  0  0
    1.0777   -1.3515    0.0000 C   0  0  0  0  0  0  0  0  0  0  0  0
  1  2  1  0
  2  3  2  0
  3  4  1  0
  4  5  2  0
  5  6  1  0
  6  7  2  0
  7  8  1  0
  8  9  2  0
  9 10  1  0
 10 11  1  0
 11 12  1  0
 12 13  1  0
 13 14  1  0
 14 15  1  0
 15 16  1  0
 16 17  1  0
 17 18  2  0
 18 19  1  0
 19 20  2  0
 20 21  1  0
 21 22  2  0
 21 23  1  0
 23 24  1  0
 20 25  1  0
 25 26  1  0
 26 27  2  0
  5 28  1  0
 28 29  1  0
 29 30  1  0
 30  2  1  0
 10  6  1  0
 16 11  1  0
 26 17  1  0
M  END
>  <Title>  (691) 
idABAOgen8

$$$$

     RDKit          2D

 16 16  0  0  0  0  0  0  0  0999 V2000
    7.9598   -2.5981    0.0000 C   0  0  0  0  0  0  0  0  0  0  0  0
    6.4598   -2.5981    0.0000 O   0  0  0  0  0  0  0  0  0  0  0  0
    5.7098   -1.2990    0.0000 C   0  0  0  0  0  0  0  0  0  0  0  0
    6.4598    0.0000    0.0000 O   0  0  0  0  0  0  0  0  0  0  0  0
    4.2098   -1.2990    0.0000 N   0  0  0  0  0  0  0  0  0  0  0  0
    3.4598   -0.0000    0.0000 C   0  0  0  0  0  0  0  0  0  0  0  0
    4.2098    1.2990    0.0000 O   0  0  0  0  0  0  0  0  0  0  0  0
    1.9598    0.0000    0.0000 C   0  0  0  0  0  0  0  0  0  0  0  0
    1.3858   -1.3858    0.0000 C   0  0  0  0  0  0  0  0  0  0  0  0
   -0.0000   -1.9598    0.0000 C   0  0  0  0  0  0  0  0  0  0  0  0
   -1.3858   -1.3858    0.0000 C   0  0  0  0  0  0  0  0  0  0  0  0
   -1.9598    0.0000    0.0000 C   0  0  0  0  0  0  0  0  0  0  0  0
   -1.3858    1.3858    0.0000 C   0  0  0  0  0  0  0  0  0  0  0  0
   -2.4465    2.4465    0.0000 O   0  0  0  0  0  0  0  0  0  0  0  0
    0.0000    1.9598    0.0000 C   0  0  0  0  0  0  0  0  0  0  0  0
    1.3858    1.3858    0.0000 C   0  0  0  0  0  0  0  0  0  0  0  0
  1  2  1  0
  2  3  1  0
  3  4  2  0
  3  5  1  0
  5  6  1  0
  6  7  2  0
  6  8  1  0
  8  9  2  0
  9 10  1  0
 10 11  2  0
 11 12  1  0
 12 13  2  0
 13 14  1  0
 13 15  1  0
 15 16  2  0
 16  8  1  0
M  END
>  <Title>  (692) 
idABAPgen8

$$$$

     RDKit          2D

 24 26  0  0  0  0  0  0  0  0999 V2000
    3.2286   -0.0000    0.0000 C   0  0  0  0  0  0  0  0  0  0  0  0
    1.7286    0.0000    0.0000 C   0  0  0  0  0  0  0  0  0  0  0  0
    1.0777    1.3515    0.0000 C   0  0  0  0  0  0  0  0  0  0  0  0
   -0.3846    1.6852    0.0000 C   0  0  0  0  0  0  0  0  0  0  0  0
   -1.5574    0.7500    0.0000 C   0  0  0  0  0  0  0  0  0  0  0  0
   -2.9088    1.4008    0.0000 C   0  0  0  0  0  0  0  0  0  0  0  0
   -4.2297    0.6900    0.0000 N   0  0  0  0  0  0  0  0  0  0  0  0
   -5.3139    1.7266    0.0000 N   0  0  0  0  0  0  0  0  0  0  0  0
   -4.6631    3.0781    0.0000 N   0  0  0  0  0  0  0  0  0  0  0  0
   -3.1767    2.8767    0.0000 N   0  0  0  0  0  0  0  0  0  0  0  0
   -2.1401    3.9609    0.0000 C   0  0  0  0  0  0  0  0  0  0  0  0
   -0.6829    3.6053    0.0000 C   0  0  0  0  0  0  0  0  0  0  0  0
    0.3537    4.6895    0.0000 C   0  0  0  0  0  0  0  0  0  0  0  0
   -0.0669    6.1293    0.0000 C   0  0  0  0  0  0  0  0  0  0  0  0
    0.9697    7.2135    0.0000 C   0  0  0  0  0  0  0  0  0  0  0  0
    0.5491    8.6533    0.0000 O   0  0  0  0  0  0  0  0  0  0  0  0
    2.4269    6.8579    0.0000 N   0  0  0  0  0  0  0  0  0  0  0  0
    3.4635    7.9421    0.0000 O   0  0  0  0  0  0  0  0  0  0  0  0
   -1.5241    6.4849    0.0000 N   0  0  0  0  0  0  0  0  0  0  0  0
   -2.5607    5.4007    0.0000 C   0  0  0  0  0  0  0  0  0  0  0  0
   -4.0180    5.7563    0.0000 O   0  0  0  0  0  0  0  0  0  0  0  0
   -1.5574   -0.7500    0.0000 N   0  0  0  0  0  0  0  0  0  0  0  0
   -0.3846   -1.6852    0.0000 C   0  0  0  0  0  0  0  0  0  0  0  0
    1.0777   -1.3515    0.0000 C   0  0  0  0  0  0  0  0  0  0  0  0
  1  2  1  0
  2  3  2  0
  3  4  1  0
  4  5  2  0
  5  6  1  0
  6  7  2  0
  7  8  1  0
  8  9  2  0
  9 10  1  0
 10 11  1  0
 11 12  2  0
 12 13  1  0
 13 14  2  0
 14 15  1  0
 15 16  2  0
 15 17  1  0
 17 18  1  0
 14 19  1  0
 19 20  1  0
 20 21  2  0
  5 22  1  0
 22 23  1  0
 23 24  1  0
 24  2  1  0
 10  6  1  0
 20 11  1  0
M  END
>  <Title>  (693) 
idABAQgen8

$$$$

     RDKit          2D

 16 16  0  0  0  0  0  0  0  0999 V2000
    6.6478   -1.2990    0.0000 C   0  0  0  0  0  0  0  0  0  0  0  0
    5.1478   -1.2990    0.0000 C   0  0  0  0  0  0  0  0  0  0  0  0
    4.3978   -2.5981    0.0000 O   0  0  0  0  0  0  0  0  0  0  0  0
    4.3978    0.0000    0.0000 O   0  0  0  0  0  0  0  0  0  0  0  0
    2.8978    0.0000    0.0000 C   0  0  0  0  0  0  0  0  0  0  0  0
    2.5095   -1.4489    0.0000 C   0  0  0  0  0  0  0  0  0  0  0  0
    1.4489   -2.5095    0.0000 C   0  0  0  0  0  0  0  0  0  0  0  0
   -0.0000   -2.8978    0.0000 C   0  0  0  0  0  0  0  0  0  0  0  0
   -1.4489   -2.5095    0.0000 C   0  0  0  0  0  0  0  0  0  0  0  0
   -2.5095   -1.4489    0.0000 C   0  0  0  0  0  0  0  0  0  0  0  0
   -2.8978    0.0000    0.0000 C   0  0  0  0  0  0  0  0  0  0  0  0
   -2.5095    1.4489    0.0000 C   0  0  0  0  0  0  0  0  0  0  0  0
   -1.4489    2.5095    0.0000 C   0  0  0  0  0  0  0  0  0  0  0  0
    0.0000    2.8978    0.0000 C   0  0  0  0  0  0  0  0  0  0  0  0
    1.4489    2.5095    0.0000 C   0  0  0  0  0  0  0  0  0  0  0  0
    2.5095    1.4489    0.0000 C   0  0  0  0  0  0  0  0  0  0  0  0
  1  2  1  0
  2  3  2  0
  2  4  1  0
  4  5  1  0
  5  6  2  0
  6  7  1  0
  7  8  2  0
  8  9  1  0
  9 10  2  0
 10 11  1  0
 11 12  2  0
 12 13  1  0
 13 14  2  0
 14 15  1  0
 15 16  2  0
 16  5  1  0
M  END
>  <Title>  (694) 
idABARgen8

$$$$

     RDKit          2D

 25 25  0  0  0  0  0  0  0  0999 V2000
    8.5443   -1.2990    0.0000 C   0  0  0  0  0  0  0  0  0  0  0  0
    7.0443   -1.2990    0.0000 C   0  0  0  0  0  0  0  0  0  0  0  0
    6.2943   -2.5981    0.0000 O   0  0  0  0  0  0  0  0  0  0  0  0
    6.2943    0.0000    0.0000 O   0  0  0  0  0  0  0  0  0  0  0  0
    4.7943    0.0000    0.0000 C   0  0  0  0  0  0  0  0  0  0  0  0
    4.5597   -1.4815    0.0000 C   0  0  0  0  0  0  0  0  0  0  0  0
    3.8787   -2.8180    0.0000 C   0  0  0  0  0  0  0  0  0  0  0  0
    2.8180   -3.8787    0.0000 C   0  0  0  0  0  0  0  0  0  0  0  0
    1.4815   -4.5597    0.0000 C   0  0  0  0  0  0  0  0  0  0  0  0
   -0.0000   -4.7943    0.0000 C   0  0  0  0  0  0  0  0  0  0  0  0
   -1.4815   -4.5597    0.0000 C   0  0  0  0  0  0  0  0  0  0  0  0
   -2.8180   -3.8787    0.0000 C   0  0  0  0  0  0  0  0  0  0  0  0
   -3.8787   -2.8180    0.0000 C   0  0  0  0  0  0  0  0  0  0  0  0
   -4.5597   -1.4815    0.0000 C   0  0  0  0  0  0  0  0  0  0  0  0
   -4.7943    0.0000    0.0000 C   0  0  0  0  0  0  0  0  0  0  0  0
   -4.5597    1.4815    0.0000 C   0  0  0  0  0  0  0  0  0  0  0  0
   -3.8787    2.8180    0.0000 C   0  0  0  0  0  0  0  0  0  0  0  0
   -2.8180    3.8787    0.0000 C   0  0  0  0  0  0  0  0  0  0  0  0
   -1.4815    4.5597    0.0000 C   0  0  0  0  0  0  0  0  0  0  0  0
    0.0000    4.7943    0.0000 C   0  0  0  0  0  0  0  0  0  0  0  0
    1.4815    4.5597    0.0000 C   0  0  0  0  0  0  0  0  0  0  0  0
    2.8180    3.8787    0.0000 C   0  0  0  0  0  0  0  0  0  0  0  0
    3.8787    2.8180    0.0000 C   0  0  0  0  0  0  0  0  0  0  0  0
    4.5597    1.4815    0.0000 C   0  0  0  0  0  0  0  0  0  0  0  0
    5.9863    1.9451    0.0000 O   0  0  0  0  0  0  0  0  0  0  0  0
  1  2  1  0
  2  3  2  0
  2  4  1  0
  4  5  1  0
  5  6  2  0
  6  7  1  0
  7  8  2  0
  8  9  1  0
  9 10  2  0
 10 11  1  0
 11 12  2  0
 12 13  1  0
 13 14  2  0
 14 15  1  0
 15 16  2  0
 16 17  1  0
 17 18  2  0
 18 19  1  0
 19 20  2  0
 20 21  1  0
 21 22  2  0
 22 23  1  0
 23 24  2  0
 24 25  1  0
 24  5  1  0
M  END
>  <Title>  (695) 
idABASgen8

$$$$

     RDKit          2D

 43 43  0  0  0  0  0  0  0  0999 V2000
   11.5361    0.0000    0.0000 C   0  0  0  0  0  0  0  0  0  0  0  0
   10.0361    0.0000    0.0000 C   0  0  0  0  0  0  0  0  0  0  0  0
    9.9240   -1.4958    0.0000 C   0  0  0  0  0  0  0  0  0  0  0  0
    9.5902   -2.9582    0.0000 C   0  0  0  0  0  0  0  0  0  0  0  0
    9.0422   -4.3545    0.0000 C   0  0  0  0  0  0  0  0  0  0  0  0
    8.2922   -5.6535    0.0000 C   0  0  0  0  0  0  0  0  0  0  0  0
    7.3570   -6.8263    0.0000 C   0  0  0  0  0  0  0  0  0  0  0  0
    6.2574   -7.8466    0.0000 C   0  0  0  0  0  0  0  0  0  0  0  0
    5.0181   -8.6915    0.0000 C   0  0  0  0  0  0  0  0  0  0  0  0
    3.6666   -9.3424    0.0000 C   0  0  0  0  0  0  0  0  0  0  0  0
    2.2332   -9.7845    0.0000 C   0  0  0  0  0  0  0  0  0  0  0  0
    0.7500  -10.0081    0.0000 C   0  0  0  0  0  0  0  0  0  0  0  0
   -0.7500  -10.0081    0.0000 C   0  0  0  0  0  0  0  0  0  0  0  0
   -2.2332   -9.7845    0.0000 C   0  0  0  0  0  0  0  0  0  0  0  0
   -3.6666   -9.3424    0.0000 C   0  0  0  0  0  0  0  0  0  0  0  0
   -5.0181   -8.6915    0.0000 C   0  0  0  0  0  0  0  0  0  0  0  0
   -6.2574   -7.8466    0.0000 C   0  0  0  0  0  0  0  0  0  0  0  0
   -7.3570   -6.8263    0.0000 C   0  0  0  0  0  0  0  0  0  0  0  0
   -8.2922   -5.6535    0.0000 C   0  0  0  0  0  0  0  0  0  0  0  0
   -9.0422   -4.3545    0.0000 C   0  0  0  0  0  0  0  0  0  0  0  0
   -9.5902   -2.9582    0.0000 C   0  0  0  0  0  0  0  0  0  0  0  0
   -9.9240   -1.4958    0.0000 C   0  0  0  0  0  0  0  0  0  0  0  0
  -10.0361    0.0000    0.0000 C   0  0  0  0  0  0  0  0  0  0  0  0
   -9.9240    1.4958    0.0000 C   0  0  0  0  0  0  0  0  0  0  0  0
   -9.5902    2.9582    0.0000 C   0  0  0  0  0  0  0  0  0  0  0  0
   -9.0422    4.3545    0.0000 C   0  0  0  0  0  0  0  0  0  0  0  0
   -8.2922    5.6535    0.0000 C   0  0  0  0  0  0  0  0  0  0  0  0
   -7.3570    6.8263    0.0000 C   0  0  0  0  0  0  0  0  0  0  0  0
   -6.2574    7.8466    0.0000 C   0  0  0  0  0  0  0  0  0  0  0  0
   -5.0181    8.6915    0.0000 C   0  0  0  0  0  0  0  0  0  0  0  0
   -3.6666    9.3424    0.0000 C   0  0  0  0  0  0  0  0  0  0  0  0
   -2.2332    9.7845    0.0000 C   0  0  0  0  0  0  0  0  0  0  0  0
   -0.7500   10.0081    0.0000 C   0  0  0  0  0  0  0  0  0  0  0  0
    0.7500   10.0081    0.0000 C   0  0  0  0  0  0  0  0  0  0  0  0
    2.2332    9.7845    0.0000 C   0  0  0  0  0  0  0  0  0  0  0  0
    3.6666    9.3424    0.0000 C   0  0  0  0  0  0  0  0  0  0  0  0
    5.0181    8.6915    0.0000 C   0  0  0  0  0  0  0  0  0  0  0  0
    6.2574    7.8466    0.0000 C   0  0  0  0  0  0  0  0  0  0  0  0
    7.3570    6.8263    0.0000 C   0  0  0  0  0  0  0  0  0  0  0  0
    8.2922    5.6535    0.0000 C   0  0  0  0  0  0  0  0  0  0  0  0
    9.0422    4.3545    0.0000 N   0  0  0  0  0  0  0  0  0  0  0  0
    9.5902    2.9582    0.0000 C   0  0  0  0  0  0  0  0  0  0  0  0
    9.9240    1.4958    0.0000 C   0  0  0  0  0  0  0  0  0  0  0  0
  1  2  1  0
  2  3  2  0
  3  4  1  0
  4  5  2  0
  5  6  1  0
  6  7  2  0
  7  8  1  0
  8  9  2  0
  9 10  1  0
 10 11  2  0
 11 12  1  0
 12 13  2  0
 13 14  1  0
 14 15  2  0
 15 16  1  0
 16 17  2  0
 17 18  1  0
 18 19  2  0
 19 20  1  0
 20 21  2  0
 21 22  1  0
 22 23  2  0
 23 24  1  0
 24 25  2  0
 25 26  1  0
 26 27  2  0
 27 28  1  0
 28 29  2  0
 29 30  1  0
 30 31  2  0
 31 32  1  0
 32 33  2  0
 33 34  1  0
 34 35  2  0
 35 36  1  0
 36 37  2  0
 37 38  1  0
 38 39  2  0
 39 40  1  0
 40 41  2  0
 41 42  1  0
 42 43  2  0
 43  2  1  0
M  END
>  <Title>  (696) 
idABATgen8

$$$$

     RDKit          2D

  9  9  0  0  0  0  0  0  0  0999 V2000
    3.0000    0.0000    0.0000 C   0  0  0  0  0  0  0  0  0  0  0  0
    1.5000    0.0000    0.0000 C   0  0  0  0  0  0  0  0  0  0  0  0
    0.7500   -1.2990    0.0000 C   0  0  0  0  0  0  0  0  0  0  0  0
   -0.7500   -1.2990    0.0000 C   0  0  0  0  0  0  0  0  0  0  0  0
   -1.5000    0.0000    0.0000 C   0  0  0  0  0  0  0  0  0  0  0  0
   -3.0000    0.0000    0.0000 O   0  0  0  0  0  0  0  0  0  0  0  0
   -0.7500    1.2990    0.0000 N   0  0  0  0  0  0  0  0  0  0  0  0
    0.7500    1.2990    0.0000 C   0  0  0  0  0  0  0  0  0  0  0  0
    1.5000    2.5981    0.0000 C   0  0  0  0  0  0  0  0  0  0  0  0
  1  2  1  0
  2  3  2  0
  3  4  1  0
  4  5  2  0
  5  6  1  0
  5  7  1  0
  7  8  2  0
  8  9  1  0
  8  2  1  0
M  END
>  <Title>  (697) 
idABAUgen8

$$$$

     RDKit          2D

 39 40  0  0  0  0  0  0  0  0999 V2000
   -2.3399   -4.2003    0.0000 C   0  0  0  0  0  0  0  0  0  0  0  0
   -0.9477   -4.7588    0.0000 C   0  0  0  0  0  0  0  0  0  0  0  0
   -1.3468   -6.2047    0.0000 C   0  0  0  0  0  0  0  0  0  0  0  0
   -1.4141   -7.7032    0.0000 C   0  0  0  0  0  0  0  0  0  0  0  0
   -1.1462   -9.1791    0.0000 C   0  0  0  0  0  0  0  0  0  0  0  0
   -0.5567  -10.5584    0.0000 C   0  0  0  0  0  0  0  0  0  0  0  0
    0.3250  -11.7719    0.0000 C   0  0  0  0  0  0  0  0  0  0  0  0
    1.4546  -12.7588    0.0000 C   0  0  0  0  0  0  0  0  0  0  0  0
    2.7755  -13.4696    0.0000 C   0  0  0  0  0  0  0  0  0  0  0  0
    4.2214  -13.8687    0.0000 C   0  0  0  0  0  0  0  0  0  0  0  0
    5.7199  -13.9360    0.0000 C   0  0  0  0  0  0  0  0  0  0  0  0
    7.1958  -13.6681    0.0000 C   0  0  0  0  0  0  0  0  0  0  0  0
    8.5751  -13.0786    0.0000 C   0  0  0  0  0  0  0  0  0  0  0  0
    9.7886  -12.1969    0.0000 C   0  0  0  0  0  0  0  0  0  0  0  0
   10.7755  -11.0673    0.0000 C   0  0  0  0  0  0  0  0  0  0  0  0
   11.4863   -9.7464    0.0000 C   0  0  0  0  0  0  0  0  0  0  0  0
   11.8854   -8.3005    0.0000 C   0  0  0  0  0  0  0  0  0  0  0  0
   11.9527   -6.8020    0.0000 C   0  0  0  0  0  0  0  0  0  0  0  0
   11.6849   -5.3261    0.0000 C   0  0  0  0  0  0  0  0  0  0  0  0
   11.0953   -3.9468    0.0000 C   0  0  0  0  0  0  0  0  0  0  0  0
   10.2136   -2.7333    0.0000 C   0  0  0  0  0  0  0  0  0  0  0  0
    9.0840   -1.7464    0.0000 C   0  0  0  0  0  0  0  0  0  0  0  0
    7.7631   -1.0356    0.0000 C   0  0  0  0  0  0  0  0  0  0  0  0
    6.3172   -0.6365    0.0000 C   0  0  0  0  0  0  0  0  0  0  0  0
    4.8187   -0.5692    0.0000 C   0  0  0  0  0  0  0  0  0  0  0  0
    3.3428   -0.8370    0.0000 C   0  0  0  0  0  0  0  0  0  0  0  0
    1.9635   -1.4266    0.0000 C   0  0  0  0  0  0  0  0  0  0  0  0
    2.4271    0.0000    0.0000 C   0  0  0  0  0  0  0  0  0  0  0  0
    1.9635    1.4266    0.0000 C   0  0  0  0  0  0  0  0  0  0  0  0
    0.7500    2.3083    0.0000 C   0  0  0  0  0  0  0  0  0  0  0  0
   -0.7500    2.3083    0.0000 C   0  0  0  0  0  0  0  0  0  0  0  0
   -1.2135    3.7348    0.0000 N   0  0  0  0  0  0  0  0  0  0  0  0
   -1.9635    1.4266    0.0000 N   0  0  0  0  0  0  0  0  0  0  0  0
   -2.4271    0.0000    0.0000 N   0  0  0  0  0  0  0  0  0  0  0  0
   -1.9635   -1.4266    0.0000 N   0  0  0  0  0  0  0  0  0  0  0  0
   -0.7500   -2.3083    0.0000 N   0  0  0  0  0  0  0  0  0  0  0  0
    0.7500   -2.3083    0.0000 N   0  0  0  0  0  0  0  0  0  0  0  0
   -0.2369   -3.4379    0.0000 C   0  0  0  0  0  0  0  0  0  0  0  0
   -1.6400   -2.9074    0.0000 O   0  0  0  0  0  0  0  0  0  0  0  0
  1  2  1  0
  2  3  2  0
  3  4  1  0
  4  5  2  0
  5  6  1  0
  6  7  2  0
  7  8  1  0
  8  9  2  0
  9 10  1  0
 10 11  2  0
 11 12  1  0
 12 13  2  0
 13 14  1  0
 14 15  2  0
 15 16  1  0
 16 17  2  0
 17 18  1  0
 18 19  2  0
 19 20  1  0
 20 21  2  0
 21 22  1  0
 22 23  2  0
 23 24  1  0
 24 25  2  0
 25 26  1  0
 26 27  2  0
 27 28  1  0
 28 29  2  0
 29 30  1  0
 30 31  2  0
 31 32  1  0
 31 33  1  0
 33 34  2  0
 34 35  1  0
 35 36  2  0
 36 37  1  0
 37 38  1  0
 38 39  2  0
 38  2  1  0
 37 27  1  0
M  END
>  <Title>  (698) 
idABAVgen8

$$$$

     RDKit          2D

 12 12  0  0  0  0  0  0  0  0999 V2000
    4.2098   -1.2990    0.0000 C   0  0  0  0  0  0  0  0  0  0  0  0
    3.4598   -0.0000    0.0000 O   0  0  0  0  0  0  0  0  0  0  0  0
    1.9598    0.0000    0.0000 C   0  0  0  0  0  0  0  0  0  0  0  0
    1.3858   -1.3858    0.0000 C   0  0  0  0  0  0  0  0  0  0  0  0
   -0.0000   -1.9598    0.0000 C   0  0  0  0  0  0  0  0  0  0  0  0
   -1.3858   -1.3858    0.0000 C   0  0  0  0  0  0  0  0  0  0  0  0
   -1.9598    0.0000    0.0000 C   0  0  0  0  0  0  0  0  0  0  0  0
   -1.3858    1.3858    0.0000 C   0  0  0  0  0  0  0  0  0  0  0  0
   -2.4465    2.4465    0.0000 F   0  0  0  0  0  0  0  0  0  0  0  0
    0.0000    1.9598    0.0000 C   0  0  0  0  0  0  0  0  0  0  0  0
    1.3858    1.3858    0.0000 C   0  0  0  0  0  0  0  0  0  0  0  0
    2.4465    2.4465    0.0000 F   0  0  0  0  0  0  0  0  0  0  0  0
  1  2  1  0
  2  3  1  0
  3  4  2  0
  4  5  1  0
  5  6  2  0
  6  7  1  0
  7  8  2  0
  8  9  1  0
  8 10  1  0
 10 11  2  0
 11 12  1  0
 11  3  1  0
M  END
>  <Title>  (699) 
idABAWgen8

$$$$

     RDKit          2D

 37 42  0  0  0  0  0  0  0  0999 V2000
    3.0000    0.0000    0.0000 C   0  0  0  0  0  0  0  0  0  0  0  0
    1.5000    0.0000    0.0000 C   0  0  0  0  0  0  0  0  0  0  0  0
    0.7500   -1.2990    0.0000 C   0  0  0  0  0  0  0  0  0  0  0  0
   -0.7500   -1.2990    0.0000 C   0  0  0  0  0  0  0  0  0  0  0  0
   -1.5000    0.0000    0.0000 C   0  0  0  0  0  0  0  0  0  0  0  0
   -3.0000    0.0000    0.0000 C   0  0  0  0  0  0  0  0  0  0  0  0
   -3.8817   -1.2135    0.0000 N   0  0  0  0  0  0  0  0  0  0  0  0
   -5.3083   -0.7500    0.0000 N   0  0  0  0  0  0  0  0  0  0  0  0
   -5.3083    0.7500    0.0000 N   0  0  0  0  0  0  0  0  0  0  0  0
   -3.8817    1.2135    0.0000 N   0  0  0  0  0  0  0  0  0  0  0  0
   -3.4182    2.6401    0.0000 C   0  0  0  0  0  0  0  0  0  0  0  0
   -1.9509    2.9520    0.0000 C   0  0  0  0  0  0  0  0  0  0  0  0
   -1.4874    4.3786    0.0000 C   0  0  0  0  0  0  0  0  0  0  0  0
   -2.4911    5.4933    0.0000 C   0  0  0  0  0  0  0  0  0  0  0  0
   -2.0276    6.9199    0.0000 C   0  0  0  0  0  0  0  0  0  0  0  0
   -2.9093    8.1334    0.0000 N   0  0  0  0  0  0  0  0  0  0  0  0
   -2.0276    9.3469    0.0000 N   0  0  0  0  0  0  0  0  0  0  0  0
   -0.6010    8.8834    0.0000 N   0  0  0  0  0  0  0  0  0  0  0  0
   -0.6010    7.3834    0.0000 N   0  0  0  0  0  0  0  0  0  0  0  0
    0.6125    6.5017    0.0000 C   0  0  0  0  0  0  0  0  0  0  0  0
    0.4557    5.0099    0.0000 C   0  0  0  0  0  0  0  0  0  0  0  0
    1.6693    4.1283    0.0000 C   0  0  0  0  0  0  0  0  0  0  0  0
    3.0396    4.7384    0.0000 C   0  0  0  0  0  0  0  0  0  0  0  0
    4.2531    3.8567    0.0000 C   0  0  0  0  0  0  0  0  0  0  0  0
    4.0963    2.3649    0.0000 C   0  0  0  0  0  0  0  0  0  0  0  0
    5.3098    1.4832    0.0000 C   0  0  0  0  0  0  0  0  0  0  0  0
    6.6802    2.0933    0.0000 C   0  0  0  0  0  0  0  0  0  0  0  0
    6.8370    3.5851    0.0000 C   0  0  0  0  0  0  0  0  0  0  0  0
    5.6234    4.4668    0.0000 C   0  0  0  0  0  0  0  0  0  0  0  0
    3.1964    6.2301    0.0000 C   0  0  0  0  0  0  0  0  0  0  0  0
    1.9829    7.1118    0.0000 C   0  0  0  0  0  0  0  0  0  0  0  0
    2.1396    8.6036    0.0000 C   0  0  0  0  0  0  0  0  0  0  0  0
   -3.9583    5.1814    0.0000 C   0  0  0  0  0  0  0  0  0  0  0  0
   -4.9620    6.2961    0.0000 O   0  0  0  0  0  0  0  0  0  0  0  0
   -4.4218    3.7548    0.0000 N   0  0  0  0  0  0  0  0  0  0  0  0
   -0.7500    1.2990    0.0000 N   0  0  0  0  0  0  0  0  0  0  0  0
    0.7500    1.2990    0.0000 C   0  0  0  0  0  0  0  0  0  0  0  0
  1  2  1  0
  2  3  2  0
  3  4  1  0
  4  5  2  0
  5  6  1  0
  6  7  2  0
  7  8  1  0
  8  9  2  0
  9 10  1  0
 10 11  1  0
 11 12  2  0
 12 13  1  0
 13 14  2  0
 14 15  1  0
 15 16  2  0
 16 17  1  0
 17 18  2  0
 18 19  1  0
 19 20  1  0
 20 21  2  0
 21 22  1  0
 22 23  2  0
 23 24  1  0
 24 25  2  0
 25 26  1  0
 26 27  2  0
 27 28  1  0
 28 29  2  0
 23 30  1  0
 30 31  2  0
 31 32  1  0
 14 33  1  0
 33 34  2  0
 33 35  1  0
  5 36  1  0
 36 37  1  0
 37  2  1  0
 10  6  1  0
 35 11  1  0
 19 15  1  0
 31 20  1  0
 29 24  1  0
M  END
>  <Title>  (700) 
idABAXgen8

$$$$

     RDKit          2D

 30 34  0  0  0  0  0  0  0  0999 V2000
    3.0000    0.0000    0.0000 C   0  0  0  0  0  0  0  0  0  0  0  0
    1.5000    0.0000    0.0000 C   0  0  0  0  0  0  0  0  0  0  0  0
    0.7500    1.2990    0.0000 C   0  0  0  0  0  0  0  0  0  0  0  0
   -0.7500    1.2990    0.0000 C   0  0  0  0  0  0  0  0  0  0  0  0
   -1.5000    0.0000    0.0000 C   0  0  0  0  0  0  0  0  0  0  0  0
   -3.0000    0.0000    0.0000 C   0  0  0  0  0  0  0  0  0  0  0  0
   -3.8817   -1.2135    0.0000 C   0  0  0  0  0  0  0  0  0  0  0  0
   -5.3083   -0.7500    0.0000 N   0  0  0  0  0  0  0  0  0  0  0  0
   -5.3083    0.7500    0.0000 N   0  0  0  0  0  0  0  0  0  0  0  0
   -3.8817    1.2135    0.0000 N   0  0  0  0  0  0  0  0  0  0  0  0
   -3.4182    2.6401    0.0000 C   0  0  0  0  0  0  0  0  0  0  0  0
   -4.2998    3.8536    0.0000 C   0  0  0  0  0  0  0  0  0  0  0  0
   -3.4182    5.0672    0.0000 C   0  0  0  0  0  0  0  0  0  0  0  0
   -1.9916    4.6036    0.0000 C   0  0  0  0  0  0  0  0  0  0  0  0
   -0.7780    5.4853    0.0000 C   0  0  0  0  0  0  0  0  0  0  0  0
    0.6485    5.0218    0.0000 N   0  0  0  0  0  0  0  0  0  0  0  0
    1.5302    6.2353    0.0000 N   0  0  0  0  0  0  0  0  0  0  0  0
    0.6485    7.4488    0.0000 N   0  0  0  0  0  0  0  0  0  0  0  0
   -0.7780    6.9853    0.0000 N   0  0  0  0  0  0  0  0  0  0  0  0
   -1.9916    7.8670    0.0000 C   0  0  0  0  0  0  0  0  0  0  0  0
   -3.3619    7.2569    0.0000 C   0  0  0  0  0  0  0  0  0  0  0  0
   -4.5754    8.1386    0.0000 C   0  0  0  0  0  0  0  0  0  0  0  0
   -4.4186    9.6303    0.0000 C   0  0  0  0  0  0  0  0  0  0  0  0
   -3.0483   10.2405    0.0000 C   0  0  0  0  0  0  0  0  0  0  0  0
   -1.8348    9.3588    0.0000 C   0  0  0  0  0  0  0  0  0  0  0  0
   -1.9916    3.1036    0.0000 C   0  0  0  0  0  0  0  0  0  0  0  0
   -0.7780    2.2220    0.0000 O   0  0  0  0  0  0  0  0  0  0  0  0
   -0.7500   -1.2990    0.0000 N   0  0  0  0  0  0  0  0  0  0  0  0
    0.7500   -1.2990    0.0000 C   0  0  0  0  0  0  0  0  0  0  0  0
    1.5000   -2.5981    0.0000 O   0  0  0  0  0  0  0  0  0  0  0  0
  1  2  1  0
  2  3  2  0
  3  4  1  0
  4  5  2  0
  5  6  1  0
  6  7  2  0
  7  8  1  0
  8  9  2  0
  9 10  1  0
 10 11  1  0
 11 12  2  0
 12 13  1  0
 13 14  2  0
 14 15  1  0
 15 16  2  0
 16 17  1  0
 17 18  2  0
 18 19  1  0
 19 20  1  0
 20 21  2  0
 21 22  1  0
 22 23  2  0
 23 24  1  0
 24 25  2  0
 14 26  1  0
 26 27  2  0
  5 28  1  0
 28 29  1  0
 29 30  2  0
 29  2  1  0
 10  6  1  0
 26 11  1  0
 19 15  1  0
 25 20  1  0
M  END
>  <Title>  (701) 
idABAYgen8

$$$$

     RDKit          2D

 14 14  0  0  0  0  0  0  0  0999 V2000
    5.7098   -1.2990    0.0000 C   0  0  0  0  0  0  0  0  0  0  0  0
    4.2098   -1.2990    0.0000 C   0  0  0  0  0  0  0  0  0  0  0  0
    3.4598   -2.5981    0.0000 O   0  0  0  0  0  0  0  0  0  0  0  0
    3.4598   -0.0000    0.0000 O   0  0  0  0  0  0  0  0  0  0  0  0
    1.9598    0.0000    0.0000 C   0  0  0  0  0  0  0  0  0  0  0  0
    1.3858   -1.3858    0.0000 C   0  0  0  0  0  0  0  0  0  0  0  0
   -0.0000   -1.9598    0.0000 C   0  0  0  0  0  0  0  0  0  0  0  0
   -1.3858   -1.3858    0.0000 C   0  0  0  0  0  0  0  0  0  0  0  0
   -1.9598    0.0000    0.0000 C   0  0  0  0  0  0  0  0  0  0  0  0
   -1.3858    1.3858    0.0000 C   0  0  0  0  0  0  0  0  0  0  0  0
   -2.4465    2.4465    0.0000 F   0  0  0  0  0  0  0  0  0  0  0  0
    0.0000    1.9598    0.0000 C   0  0  0  0  0  0  0  0  0  0  0  0
    1.3858    1.3858    0.0000 C   0  0  0  0  0  0  0  0  0  0  0  0
    2.4465    2.4465    0.0000 C   0  0  0  0  0  0  0  0  0  0  0  0
  1  2  1  0
  2  3  2  0
  2  4  1  0
  4  5  1  0
  5  6  2  0
  6  7  1  0
  7  8  2  0
  8  9  1  0
  9 10  2  0
 10 11  1  0
 10 12  1  0
 12 13  2  0
 13 14  1  0
 13  5  1  0
M  END
>  <Title>  (702) 
idABAZgen8

$$$$

     RDKit          2D

 25 27  0  0  0  0  0  0  0  0999 V2000
    3.0000    0.0000    0.0000 C   0  0  0  0  0  0  0  0  0  0  0  0
    1.5000    0.0000    0.0000 C   0  0  0  0  0  0  0  0  0  0  0  0
    0.7500   -1.2990    0.0000 C   0  0  0  0  0  0  0  0  0  0  0  0
   -0.7500   -1.2990    0.0000 C   0  0  0  0  0  0  0  0  0  0  0  0
   -1.5000    0.0000    0.0000 C   0  0  0  0  0  0  0  0  0  0  0  0
   -3.0000    0.0000    0.0000 C   0  0  0  0  0  0  0  0  0  0  0  0
   -3.7500   -1.2990    0.0000 O   0  0  0  0  0  0  0  0  0  0  0  0
   -3.7500    1.2990    0.0000 N   0  0  0  0  0  0  0  0  0  0  0  0
   -5.2500    1.2990    0.0000 C   0  0  0  0  0  0  0  0  0  0  0  0
   -6.1317    0.0855    0.0000 N   0  0  0  0  0  0  0  0  0  0  0  0
   -7.5583    0.5490    0.0000 N   0  0  0  0  0  0  0  0  0  0  0  0
   -7.5583    2.0490    0.0000 N   0  0  0  0  0  0  0  0  0  0  0  0
   -6.1317    2.5126    0.0000 N   0  0  0  0  0  0  0  0  0  0  0  0
   -5.6682    3.9391    0.0000 C   0  0  0  0  0  0  0  0  0  0  0  0
   -4.2009    4.2510    0.0000 C   0  0  0  0  0  0  0  0  0  0  0  0
   -3.7374    5.6776    0.0000 C   0  0  0  0  0  0  0  0  0  0  0  0
   -4.7411    6.7923    0.0000 C   0  0  0  0  0  0  0  0  0  0  0  0
   -4.2776    8.2189    0.0000 C   0  0  0  0  0  0  0  0  0  0  0  0
   -5.2813    9.3336    0.0000 O   0  0  0  0  0  0  0  0  0  0  0  0
   -2.8104    8.5308    0.0000 N   0  0  0  0  0  0  0  0  0  0  0  0
   -2.3468    9.9574    0.0000 O   0  0  0  0  0  0  0  0  0  0  0  0
   -6.2083    6.4805    0.0000 C   0  0  0  0  0  0  0  0  0  0  0  0
   -6.6718    5.0539    0.0000 C   0  0  0  0  0  0  0  0  0  0  0  0
   -0.7500    1.2990    0.0000 C   0  0  0  0  0  0  0  0  0  0  0  0
    0.7500    1.2990    0.0000 N   0  0  0  0  0  0  0  0  0  0  0  0
  1  2  1  0
  2  3  2  0
  3  4  1  0
  4  5  2  0
  5  6  1  0
  6  7  2  0
  6  8  1  0
  8  9  1  0
  9 10  2  0
 10 11  1  0
 11 12  2  0
 12 13  1  0
 13 14  1  0
 14 15  2  0
 15 16  1  0
 16 17  2  0
 17 18  1  0
 18 19  2  0
 18 20  1  0
 20 21  1  0
 17 22  1  0
 22 23  1  0
  5 24  1  0
 24 25  1  0
 25  2  1  0
 13  9  1  0
 23 14  1  0
M  END
>  <Title>  (703) 
idABBAgen8

$$$$

     RDKit          2D

 37 41  0  0  0  0  0  0  0  0999 V2000
    3.0000    0.0000    0.0000 C   0  0  0  0  0  0  0  0  0  0  0  0
    1.5000    0.0000    0.0000 C   0  0  0  0  0  0  0  0  0  0  0  0
    0.7500   -1.2990    0.0000 C   0  0  0  0  0  0  0  0  0  0  0  0
   -0.7500   -1.2990    0.0000 C   0  0  0  0  0  0  0  0  0  0  0  0
   -1.5000    0.0000    0.0000 C   0  0  0  0  0  0  0  0  0  0  0  0
   -3.0000    0.0000    0.0000 C   0  0  0  0  0  0  0  0  0  0  0  0
   -3.8817   -1.2135    0.0000 N   0  0  0  0  0  0  0  0  0  0  0  0
   -5.3083   -0.7500    0.0000 N   0  0  0  0  0  0  0  0  0  0  0  0
   -5.3083    0.7500    0.0000 N   0  0  0  0  0  0  0  0  0  0  0  0
   -3.8817    1.2135    0.0000 N   0  0  0  0  0  0  0  0  0  0  0  0
   -3.4182    2.6401    0.0000 C   0  0  0  0  0  0  0  0  0  0  0  0
   -4.2998    3.8536    0.0000 C   0  0  0  0  0  0  0  0  0  0  0  0
   -3.4182    5.0672    0.0000 C   0  0  0  0  0  0  0  0  0  0  0  0
   -1.9916    4.6036    0.0000 C   0  0  0  0  0  0  0  0  0  0  0  0
   -0.7780    5.4853    0.0000 C   0  0  0  0  0  0  0  0  0  0  0  0
   -0.9348    6.9771    0.0000 O   0  0  0  0  0  0  0  0  0  0  0  0
    0.5923    4.8752    0.0000 N   0  0  0  0  0  0  0  0  0  0  0  0
    1.8058    5.7569    0.0000 C   0  0  0  0  0  0  0  0  0  0  0  0
    1.8058    7.2569    0.0000 N   0  0  0  0  0  0  0  0  0  0  0  0
    3.2324    7.7204    0.0000 N   0  0  0  0  0  0  0  0  0  0  0  0
    4.1141    6.5069    0.0000 N   0  0  0  0  0  0  0  0  0  0  0  0
    3.2324    5.2934    0.0000 N   0  0  0  0  0  0  0  0  0  0  0  0
    3.6959    3.8668    0.0000 C   0  0  0  0  0  0  0  0  0  0  0  0
    2.6922    2.7521    0.0000 C   0  0  0  0  0  0  0  0  0  0  0  0
    3.1557    1.3255    0.0000 C   0  0  0  0  0  0  0  0  0  0  0  0
    4.6230    1.0136    0.0000 C   0  0  0  0  0  0  0  0  0  0  0  0
    5.0865   -0.4130    0.0000 C   0  0  0  0  0  0  0  0  0  0  0  0
    4.0828   -1.5277    0.0000 O   0  0  0  0  0  0  0  0  0  0  0  0
    6.5537   -0.7248    0.0000 N   0  0  0  0  0  0  0  0  0  0  0  0
    7.0172   -2.1514    0.0000 O   0  0  0  0  0  0  0  0  0  0  0  0
    5.6267    2.1283    0.0000 N   0  0  0  0  0  0  0  0  0  0  0  0
    5.1631    3.5549    0.0000 C   0  0  0  0  0  0  0  0  0  0  0  0
    6.1668    4.6696    0.0000 O   0  0  0  0  0  0  0  0  0  0  0  0
   -1.9916    3.1036    0.0000 C   0  0  0  0  0  0  0  0  0  0  0  0
   -0.7780    2.2220    0.0000 O   0  0  0  0  0  0  0  0  0  0  0  0
   -0.7500    1.2990    0.0000 C   0  0  0  0  0  0  0  0  0  0  0  0
    0.7500    1.2990    0.0000 C   0  0  0  0  0  0  0  0  0  0  0  0
  1  2  1  0
  2  3  2  0
  3  4  1  0
  4  5  2  0
  5  6  1  0
  6  7  2  0
  7  8  1  0
  8  9  2  0
  9 10  1  0
 10 11  1  0
 11 12  2  0
 12 13  1  0
 13 14  2  0
 14 15  1  0
 15 16  2  0
 15 17  1  0
 17 18  1  0
 18 19  2  0
 19 20  1  0
 20 21  2  0
 21 22  1  0
 22 23  1  0
 23 24  2  0
 24 25  1  0
 25 26  2  0
 26 27  1  0
 27 28  2  0
 27 29  1  0
 29 30  1  0
 26 31  1  0
 31 32  1  0
 32 33  2  0
 14 34  1  0
 34 35  2  0
  5 36  1  0
 36 37  2  0
 37  2  1  0
 10  6  1  0
 34 11  1  0
 22 18  1  0
 32 23  1  0
M  END
>  <Title>  (704) 
idABBBgen8

$$$$

     RDKit          2D

 32 32  0  0  0  0  0  0  0  0999 V2000
    8.6751   -0.0000    0.0000 C   0  0  0  0  0  0  0  0  0  0  0  0
    7.1751    0.0000    0.0000 C   0  0  0  0  0  0  0  0  0  0  0  0
    7.0183   -1.4918    0.0000 C   0  0  0  0  0  0  0  0  0  0  0  0
    6.5548   -2.9184    0.0000 C   0  0  0  0  0  0  0  0  0  0  0  0
    5.8048   -4.2174    0.0000 C   0  0  0  0  0  0  0  0  0  0  0  0
    4.8011   -5.3321    0.0000 C   0  0  0  0  0  0  0  0  0  0  0  0
    3.5875   -6.2138    0.0000 C   0  0  0  0  0  0  0  0  0  0  0  0
    2.2172   -6.8239    0.0000 C   0  0  0  0  0  0  0  0  0  0  0  0
    0.7500   -7.1358    0.0000 C   0  0  0  0  0  0  0  0  0  0  0  0
   -0.7500   -7.1358    0.0000 C   0  0  0  0  0  0  0  0  0  0  0  0
   -2.2172   -6.8239    0.0000 C   0  0  0  0  0  0  0  0  0  0  0  0
   -3.5875   -6.2138    0.0000 C   0  0  0  0  0  0  0  0  0  0  0  0
   -4.8011   -5.3321    0.0000 C   0  0  0  0  0  0  0  0  0  0  0  0
   -5.8048   -4.2174    0.0000 C   0  0  0  0  0  0  0  0  0  0  0  0
   -6.5548   -2.9184    0.0000 C   0  0  0  0  0  0  0  0  0  0  0  0
   -7.0183   -1.4918    0.0000 C   0  0  0  0  0  0  0  0  0  0  0  0
   -7.1751    0.0000    0.0000 C   0  0  0  0  0  0  0  0  0  0  0  0
   -7.0183    1.4918    0.0000 C   0  0  0  0  0  0  0  0  0  0  0  0
   -6.5548    2.9184    0.0000 C   0  0  0  0  0  0  0  0  0  0  0  0
   -5.8048    4.2174    0.0000 C   0  0  0  0  0  0  0  0  0  0  0  0
   -4.8011    5.3321    0.0000 C   0  0  0  0  0  0  0  0  0  0  0  0
   -3.5875    6.2138    0.0000 C   0  0  0  0  0  0  0  0  0  0  0  0
   -2.2172    6.8239    0.0000 C   0  0  0  0  0  0  0  0  0  0  0  0
   -0.7500    7.1358    0.0000 C   0  0  0  0  0  0  0  0  0  0  0  0
    0.7500    7.1358    0.0000 C   0  0  0  0  0  0  0  0  0  0  0  0
    2.2172    6.8239    0.0000 C   0  0  0  0  0  0  0  0  0  0  0  0
    3.5875    6.2138    0.0000 C   0  0  0  0  0  0  0  0  0  0  0  0
    4.8011    5.3321    0.0000 C   0  0  0  0  0  0  0  0  0  0  0  0
    5.8048    4.2174    0.0000 C   0  0  0  0  0  0  0  0  0  0  0  0
    7.0183    5.0991    0.0000 O   0  0  0  0  0  0  0  0  0  0  0  0
    6.5548    2.9184    0.0000 C   0  0  0  0  0  0  0  0  0  0  0  0
    7.0183    1.4918    0.0000 C   0  0  0  0  0  0  0  0  0  0  0  0
  1  2  1  0
  2  3  2  0
  3  4  1  0
  4  5  2  0
  5  6  1  0
  6  7  2  0
  7  8  1  0
  8  9  2  0
  9 10  1  0
 10 11  2  0
 11 12  1  0
 12 13  2  0
 13 14  1  0
 14 15  2  0
 15 16  1  0
 16 17  2  0
 17 18  1  0
 18 19  2  0
 19 20  1  0
 20 21  2  0
 21 22  1  0
 22 23  2  0
 23 24  1  0
 24 25  2  0
 25 26  1  0
 26 27  2  0
 27 28  1  0
 28 29  2  0
 29 30  1  0
 29 31  1  0
 31 32  2  0
 32  2  1  0
M  END
>  <Title>  (705) 
idABBCgen8

$$$$

     RDKit          2D

 19 19  0  0  0  0  0  0  0  0999 V2000
    6.0944   -1.2990    0.0000 C   0  0  0  0  0  0  0  0  0  0  0  0
    5.3444    0.0000    0.0000 O   0  0  0  0  0  0  0  0  0  0  0  0
    3.8444    0.0000    0.0000 C   0  0  0  0  0  0  0  0  0  0  0  0
    3.5517   -1.4712    0.0000 C   0  0  0  0  0  0  0  0  0  0  0  0
    2.7184   -2.7184    0.0000 C   0  0  0  0  0  0  0  0  0  0  0  0
    1.4712   -3.5517    0.0000 C   0  0  0  0  0  0  0  0  0  0  0  0
   -0.0000   -3.8444    0.0000 C   0  0  0  0  0  0  0  0  0  0  0  0
   -1.4712   -3.5517    0.0000 C   0  0  0  0  0  0  0  0  0  0  0  0
   -2.0452   -4.9376    0.0000 F   0  0  0  0  0  0  0  0  0  0  0  0
   -2.7184   -2.7184    0.0000 C   0  0  0  0  0  0  0  0  0  0  0  0
   -3.5517   -1.4712    0.0000 C   0  0  0  0  0  0  0  0  0  0  0  0
   -3.8444    0.0000    0.0000 C   0  0  0  0  0  0  0  0  0  0  0  0
   -3.5517    1.4712    0.0000 C   0  0  0  0  0  0  0  0  0  0  0  0
   -2.7184    2.7184    0.0000 C   0  0  0  0  0  0  0  0  0  0  0  0
   -1.4712    3.5517    0.0000 C   0  0  0  0  0  0  0  0  0  0  0  0
    0.0000    3.8444    0.0000 C   0  0  0  0  0  0  0  0  0  0  0  0
    1.4712    3.5517    0.0000 C   0  0  0  0  0  0  0  0  0  0  0  0
    2.7184    2.7184    0.0000 C   0  0  0  0  0  0  0  0  0  0  0  0
    3.5517    1.4712    0.0000 C   0  0  0  0  0  0  0  0  0  0  0  0
  1  2  1  0
  2  3  1  0
  3  4  2  0
  4  5  1  0
  5  6  2  0
  6  7  1  0
  7  8  2  0
  8  9  1  0
  8 10  1  0
 10 11  2  0
 11 12  1  0
 12 13  2  0
 13 14  1  0
 14 15  2  0
 15 16  1  0
 16 17  2  0
 17 18  1  0
 18 19  2  0
 19  3  1  0
M  END
>  <Title>  (706) 
idABBDgen8

$$$$

     RDKit          2D

 18 19  0  0  0  0  0  0  0  0999 V2000
    5.5308    4.8321    0.0000 C   0  0  0  0  0  0  0  0  0  0  0  0
    4.1212    4.3191    0.0000 C   0  0  0  0  0  0  0  0  0  0  0  0
    4.1212    2.8191    0.0000 C   0  0  0  0  0  0  0  0  0  0  0  0
    3.1570    1.6700    0.0000 C   0  0  0  0  0  0  0  0  0  0  0  0
    1.6798    1.4095    0.0000 C   0  0  0  0  0  0  0  0  0  0  0  0
    2.1929    0.0000    0.0000 C   0  0  0  0  0  0  0  0  0  0  0  0
    1.6798   -1.4095    0.0000 C   0  0  0  0  0  0  0  0  0  0  0  0
    0.3808   -2.1595    0.0000 C   0  0  0  0  0  0  0  0  0  0  0  0
   -1.0964   -1.8991    0.0000 C   0  0  0  0  0  0  0  0  0  0  0  0
   -2.0606   -0.7500    0.0000 C   0  0  0  0  0  0  0  0  0  0  0  0
   -2.0606    0.7500    0.0000 C   0  0  0  0  0  0  0  0  0  0  0  0
   -1.0964    1.8991    0.0000 C   0  0  0  0  0  0  0  0  0  0  0  0
    0.3808    2.1595    0.0000 C   0  0  0  0  0  0  0  0  0  0  0  0
   -0.1322    3.5691    0.0000 C   0  0  0  0  0  0  0  0  0  0  0  0
   -1.6322    3.5691    0.0000 C   0  0  0  0  0  0  0  0  0  0  0  0
    0.3808    4.9786    0.0000 C   0  0  0  0  0  0  0  0  0  0  0  0
    1.6798    5.7286    0.0000 C   0  0  0  0  0  0  0  0  0  0  0  0
    3.1570    5.4681    0.0000 C   0  0  0  0  0  0  0  0  0  0  0  0
  1  2  1  0
  2  3  2  0
  3  4  1  0
  4  5  2  0
  5  6  1  0
  6  7  2  0
  7  8  1  0
  8  9  2  0
  9 10  1  0
 10 11  2  0
 11 12  1  0
 12 13  2  0
 13 14  1  0
 14 15  1  0
 14 16  2  0
 16 17  1  0
 17 18  2  0
 18  2  1  0
 13  5  1  0
M  END
>  <Title>  (707) 
idABBEgen8

$$$$

     RDKit          2D

 56 64  0  0  0  0  0  0  0  0999 V2000
    3.6381    6.6546    0.0000 C   0  0  0  0  0  0  0  0  0  0  0  0
    2.4541    8.5089    0.0000 C   0  0  0  0  0  0  0  0  0  0  0  0
    3.0064    9.2993    0.0000 C   0  0  0  0  0  0  0  0  0  0  0  0
    2.8380   10.2487    0.0000 C   0  0  0  0  0  0  0  0  0  0  0  0
    2.1983   11.4846    0.0000 C   0  0  0  0  0  0  0  0  0  0  0  0
    0.7214   11.2226    0.0000 N   0  0  0  0  0  0  0  0  0  0  0  0
   -0.1377    9.9930    0.0000 C   0  0  0  0  0  0  0  0  0  0  0  0
   -1.6025   10.3161    0.0000 O   0  0  0  0  0  0  0  0  0  0  0  0
    0.1243    8.5160    0.0000 C   0  0  0  0  0  0  0  0  0  0  0  0
   -1.3326    8.8729    0.0000 C   0  0  0  0  0  0  0  0  0  0  0  0
   -2.8201    8.6794    0.0000 C   0  0  0  0  0  0  0  0  0  0  0  0
   -4.1372    7.9616    0.0000 C   0  0  0  0  0  0  0  0  0  0  0  0
   -5.6134    8.2282    0.0000 C   0  0  0  0  0  0  0  0  0  0  0  0
   -6.7585    9.1971    0.0000 O   0  0  0  0  0  0  0  0  0  0  0  0
   -5.1061    6.8165    0.0000 C   0  0  0  0  0  0  0  0  0  0  0  0
   -5.5959    5.3988    0.0000 N   0  0  0  0  0  0  0  0  0  0  0  0
   -5.5405    3.8998    0.0000 N   0  0  0  0  0  0  0  0  0  0  0  0
   -4.9473    2.5221    0.0000 N   0  0  0  0  0  0  0  0  0  0  0  0
   -3.8965    1.4517    0.0000 N   0  0  0  0  0  0  0  0  0  0  0  0
   -4.7556    0.2220    0.0000 C   0  0  0  0  0  0  0  0  0  0  0  0
   -6.2500    0.3512    0.0000 C   0  0  0  0  0  0  0  0  0  0  0  0
   -7.1091   -0.8784    0.0000 C   0  0  0  0  0  0  0  0  0  0  0  0
   -6.4738   -2.2372    0.0000 C   0  0  0  0  0  0  0  0  0  0  0  0
   -4.9794   -2.3664    0.0000 C   0  0  0  0  0  0  0  0  0  0  0  0
   -4.1203   -1.1368    0.0000 C   0  0  0  0  0  0  0  0  0  0  0  0
   -2.5300    0.8331    0.0000 C   0  0  0  0  0  0  0  0  0  0  0  0
    1.8204    2.9878    0.0000 C   0  0  0  0  0  0  0  0  0  0  0  0
    3.3169    3.0908    0.0000 C   0  0  0  0  0  0  0  0  0  0  0  0
    4.6204    3.8330    0.0000 C   0  0  0  0  0  0  0  0  0  0  0  0
    5.6340    2.7273    0.0000 C   0  0  0  0  0  0  0  0  0  0  0  0
    5.1832    1.2966    0.0000 C   0  0  0  0  0  0  0  0  0  0  0  0
    6.1968    0.1909    0.0000 C   0  0  0  0  0  0  0  0  0  0  0  0
    7.6612    0.5158    0.0000 C   0  0  0  0  0  0  0  0  0  0  0  0
    8.1120    1.9465    0.0000 C   0  0  0  0  0  0  0  0  0  0  0  0
    7.0984    3.0522    0.0000 C   0  0  0  0  0  0  0  0  0  0  0  0
    5.4728    5.0672    0.0000 C   0  0  0  0  0  0  0  0  0  0  0  0
    5.7053    6.5491    0.0000 C   0  0  0  0  0  0  0  0  0  0  0  0
    5.2719    7.9851    0.0000 C   0  0  0  0  0  0  0  0  0  0  0  0
    4.9553    6.5189    0.0000 C   0  0  0  0  0  0  0  0  0  0  0  0
    3.9481    5.4073    0.0000 C   0  0  0  0  0  0  0  0  0  0  0  0
    2.5200    4.9484    0.0000 C   0  0  0  0  0  0  0  0  0  0  0  0
    2.1901    6.4116    0.0000 C   0  0  0  0  0  0  0  0  0  0  0  0
    1.3539    7.6569    0.0000 C   0  0  0  0  0  0  0  0  0  0  0  0
    1.6375    3.6933    0.0000 C   0  0  0  0  0  0  0  0  0  0  0  0
    2.5655    3.5380    0.0000 O   0  0  0  0  0  0  0  0  0  0  0  0
    1.0227    2.6132    0.0000 N   0  0  0  0  0  0  0  0  0  0  0  0
    0.3943    1.2135    0.0000 C   0  0  0  0  0  0  0  0  0  0  0  0
    1.2760    0.0000    0.0000 N   0  0  0  0  0  0  0  0  0  0  0  0
    0.3943   -1.2135    0.0000 N   0  0  0  0  0  0  0  0  0  0  0  0
   -1.0323   -0.7500    0.0000 N   0  0  0  0  0  0  0  0  0  0  0  0
   -1.0323    0.7500    0.0000 N   0  0  0  0  0  0  0  0  0  0  0  0
    4.8129    9.4131    0.0000 N   0  0  0  0  0  0  0  0  0  0  0  0
    6.1143   10.1590    0.0000 N   0  0  0  0  0  0  0  0  0  0  0  0
    5.8071   11.6272    0.0000 N   0  0  0  0  0  0  0  0  0  0  0  0
    4.3158   11.7887    0.0000 N   0  0  0  0  0  0  0  0  0  0  0  0
    3.7014   10.4204    0.0000 C   0  0  0  0  0  0  0  0  0  0  0  0
  1  2  1  0
  2  3  2  0
  3  4  1  0
  4  5  2  0
  5  6  1  0
  6  7  1  0
  7  8  2  0
  7  9  1  0
  9 10  2  0
 10 11  1  0
 11 12  2  0
 12 13  1  0
 13 14  2  0
 13 15  1  0
 15 16  2  0
 16 17  1  0
 17 18  2  0
 18 19  1  0
 19 20  1  0
 20 21  2  0
 21 22  1  0
 22 23  2  0
 23 24  1  0
 24 25  2  0
 19 26  1  0
 26 27  2  0
 27 28  1  0
 28 29  2  0
 29 30  1  0
 30 31  2  0
 31 32  1  0
 32 33  2  0
 33 34  1  0
 34 35  2  0
 29 36  1  0
 36 37  2  0
 37 38  1  0
 38 39  2  0
 39 40  1  0
 40 41  2  0
 41 42  1  0
 42 43  2  0
 41 44  1  0
 44 45  2  0
 44 46  1  0
 46 47  1  0
 47 48  2  0
 48 49  1  0
 49 50  2  0
 50 51  1  0
 38 52  1  0
 52 53  1  0
 53 54  2  0
 54 55  1  0
 55 56  2  0
 43  2  1  0
 51 47  1  0
 56 52  1  0
 56  5  1  0
 43  9  1  0
 15 12  1  0
 25 20  1  0
 51 26  1  0
 35 30  1  0
M  END
>  <Title>  (708) 
idABBFgen8

$$$$

     RDKit          2D

 45 51  0  0  0  0  0  0  0  0999 V2000
   -8.7821   15.6763    0.0000 C   0  0  0  0  0  0  0  0  0  0  0  0
   -8.9389   14.1845    0.0000 O   0  0  0  0  0  0  0  0  0  0  0  0
   -7.7254   13.3028    0.0000 C   0  0  0  0  0  0  0  0  0  0  0  0
   -6.3550   13.9130    0.0000 C   0  0  0  0  0  0  0  0  0  0  0  0
   -5.1415   13.0313    0.0000 C   0  0  0  0  0  0  0  0  0  0  0  0
   -5.2983   11.5395    0.0000 C   0  0  0  0  0  0  0  0  0  0  0  0
   -4.0848   10.6578    0.0000 C   0  0  0  0  0  0  0  0  0  0  0  0
   -2.7145   11.2679    0.0000 O   0  0  0  0  0  0  0  0  0  0  0  0
   -4.2416    9.1660    0.0000 N   0  0  0  0  0  0  0  0  0  0  0  0
   -3.0280    8.2844    0.0000 C   0  0  0  0  0  0  0  0  0  0  0  0
   -1.6015    8.7479    0.0000 N   0  0  0  0  0  0  0  0  0  0  0  0
   -0.7198    7.5344    0.0000 N   0  0  0  0  0  0  0  0  0  0  0  0
   -1.6015    6.3208    0.0000 N   0  0  0  0  0  0  0  0  0  0  0  0
   -3.0280    6.7844    0.0000 N   0  0  0  0  0  0  0  0  0  0  0  0
   -4.2416    5.9027    0.0000 C   0  0  0  0  0  0  0  0  0  0  0  0
   -5.6682    6.3662    0.0000 C   0  0  0  0  0  0  0  0  0  0  0  0
   -6.5498    5.1527    0.0000 N   0  0  0  0  0  0  0  0  0  0  0  0
   -5.6682    3.9391    0.0000 N   0  0  0  0  0  0  0  0  0  0  0  0
   -4.2416    4.4027    0.0000 N   0  0  0  0  0  0  0  0  0  0  0  0
   -3.0280    3.5210    0.0000 C   0  0  0  0  0  0  0  0  0  0  0  0
   -1.6015    3.9845    0.0000 C   0  0  0  0  0  0  0  0  0  0  0  0
   -0.7198    2.7710    0.0000 C   0  0  0  0  0  0  0  0  0  0  0  0
   -1.6015    1.5575    0.0000 C   0  0  0  0  0  0  0  0  0  0  0  0
   -1.1379    0.1309    0.0000 C   0  0  0  0  0  0  0  0  0  0  0  0
    0.2887   -0.3326    0.0000 N   0  0  0  0  0  0  0  0  0  0  0  0
    0.2887   -1.8326    0.0000 N   0  0  0  0  0  0  0  0  0  0  0  0
   -1.1379   -2.2962    0.0000 N   0  0  0  0  0  0  0  0  0  0  0  0
   -2.0196   -1.0826    0.0000 N   0  0  0  0  0  0  0  0  0  0  0  0
   -3.5196   -1.0826    0.0000 C   0  0  0  0  0  0  0  0  0  0  0  0
   -4.4013    0.1309    0.0000 C   0  0  0  0  0  0  0  0  0  0  0  0
   -5.8279   -0.3326    0.0000 C   0  0  0  0  0  0  0  0  0  0  0  0
   -5.8279   -1.8326    0.0000 C   0  0  0  0  0  0  0  0  0  0  0  0
   -7.0414   -2.7143    0.0000 C   0  0  0  0  0  0  0  0  0  0  0  0
   -6.8846   -4.2061    0.0000 C   0  0  0  0  0  0  0  0  0  0  0  0
   -8.0981   -5.0878    0.0000 C   0  0  0  0  0  0  0  0  0  0  0  0
   -9.4684   -4.4777    0.0000 C   0  0  0  0  0  0  0  0  0  0  0  0
   -9.6252   -2.9859    0.0000 C   0  0  0  0  0  0  0  0  0  0  0  0
   -8.4117   -2.1042    0.0000 C   0  0  0  0  0  0  0  0  0  0  0  0
   -4.4013   -2.2962    0.0000 C   0  0  0  0  0  0  0  0  0  0  0  0
   -3.9378   -3.7227    0.0000 O   0  0  0  0  0  0  0  0  0  0  0  0
   -3.0280    2.0210    0.0000 C   0  0  0  0  0  0  0  0  0  0  0  0
   -4.2416    1.1393    0.0000 O   0  0  0  0  0  0  0  0  0  0  0  0
   -6.6686   10.9294    0.0000 C   0  0  0  0  0  0  0  0  0  0  0  0
   -6.8254    9.4376    0.0000 O   0  0  0  0  0  0  0  0  0  0  0  0
   -7.8821   11.8111    0.0000 N   0  0  0  0  0  0  0  0  0  0  0  0
  1  2  1  0
  2  3  1  0
  3  4  2  0
  4  5  1  0
  5  6  2  0
  6  7  1  0
  7  8  2  0
  7  9  1  0
  9 10  1  0
 10 11  2  0
 11 12  1  0
 12 13  2  0
 13 14  1  0
 14 15  1  0
 15 16  2  0
 16 17  1  0
 17 18  2  0
 18 19  1  0
 19 20  1  0
 20 21  2  0
 21 22  1  0
 22 23  2  0
 23 24  1  0
 24 25  2  0
 25 26  1  0
 26 27  2  0
 27 28  1  0
 28 29  1  0
 29 30  2  0
 30 31  1  0
 31 32  2  0
 32 33  1  0
 33 34  2  0
 34 35  1  0
 35 36  2  0
 36 37  1  0
 37 38  2  0
 32 39  1  0
 39 40  2  0
 23 41  1  0
 41 42  2  0
  6 43  1  0
 43 44  2  0
 43 45  1  0
 45  3  1  0
 14 10  1  0
 19 15  1  0
 41 20  1  0
 28 24  1  0
 39 29  1  0
 38 33  1  0
M  END
>  <Title>  (709) 
idABBGgen8

$$$$

     RDKit          2D

 37 42  0  0  0  0  0  0  0  0999 V2000
    3.7500   -1.2990    0.0000 C   0  0  0  0  0  0  0  0  0  0  0  0
    3.0000    0.0000    0.0000 O   0  0  0  0  0  0  0  0  0  0  0  0
    1.5000    0.0000    0.0000 C   0  0  0  0  0  0  0  0  0  0  0  0
    0.7500   -1.2990    0.0000 C   0  0  0  0  0  0  0  0  0  0  0  0
   -0.7500   -1.2990    0.0000 C   0  0  0  0  0  0  0  0  0  0  0  0
   -1.5000    0.0000    0.0000 C   0  0  0  0  0  0  0  0  0  0  0  0
   -3.0000    0.0000    0.0000 C   0  0  0  0  0  0  0  0  0  0  0  0
   -3.8817   -1.2135    0.0000 C   0  0  0  0  0  0  0  0  0  0  0  0
   -5.3083   -0.7500    0.0000 N   0  0  0  0  0  0  0  0  0  0  0  0
   -5.3083    0.7500    0.0000 N   0  0  0  0  0  0  0  0  0  0  0  0
   -3.8817    1.2135    0.0000 N   0  0  0  0  0  0  0  0  0  0  0  0
   -3.4182    2.6401    0.0000 C   0  0  0  0  0  0  0  0  0  0  0  0
   -1.9509    2.9520    0.0000 C   0  0  0  0  0  0  0  0  0  0  0  0
   -1.4874    4.3786    0.0000 C   0  0  0  0  0  0  0  0  0  0  0  0
   -2.4911    5.4933    0.0000 C   0  0  0  0  0  0  0  0  0  0  0  0
   -3.9583    5.1814    0.0000 C   0  0  0  0  0  0  0  0  0  0  0  0
   -4.4218    3.7548    0.0000 C   0  0  0  0  0  0  0  0  0  0  0  0
   -5.8891    3.4430    0.0000 C   0  0  0  0  0  0  0  0  0  0  0  0
   -6.8928    4.5577    0.0000 C   0  0  0  0  0  0  0  0  0  0  0  0
   -8.3600    4.2458    0.0000 C   0  0  0  0  0  0  0  0  0  0  0  0
   -8.8235    2.8192    0.0000 C   0  0  0  0  0  0  0  0  0  0  0  0
  -10.2907    2.5074    0.0000 C   0  0  0  0  0  0  0  0  0  0  0  0
  -10.9008    1.1370    0.0000 N   0  0  0  0  0  0  0  0  0  0  0  0
  -12.3926    1.2938    0.0000 N   0  0  0  0  0  0  0  0  0  0  0  0
  -12.7045    2.7611    0.0000 N   0  0  0  0  0  0  0  0  0  0  0  0
  -11.4055    3.5111    0.0000 N   0  0  0  0  0  0  0  0  0  0  0  0
  -11.2487    5.0028    0.0000 C   0  0  0  0  0  0  0  0  0  0  0  0
   -9.8783    5.6129    0.0000 C   0  0  0  0  0  0  0  0  0  0  0  0
   -9.7215    7.1047    0.0000 C   0  0  0  0  0  0  0  0  0  0  0  0
  -10.9351    7.9864    0.0000 C   0  0  0  0  0  0  0  0  0  0  0  0
  -12.3054    7.3763    0.0000 C   0  0  0  0  0  0  0  0  0  0  0  0
  -12.4622    5.8845    0.0000 C   0  0  0  0  0  0  0  0  0  0  0  0
   -7.8198    1.7045    0.0000 C   0  0  0  0  0  0  0  0  0  0  0  0
   -6.3526    2.0164    0.0000 C   0  0  0  0  0  0  0  0  0  0  0  0
   -0.7500    1.2990    0.0000 C   0  0  0  0  0  0  0  0  0  0  0  0
    0.7500    1.2990    0.0000 C   0  0  0  0  0  0  0  0  0  0  0  0
    1.5000    2.5981    0.0000 C   0  0  0  0  0  0  0  0  0  0  0  0
  1  2  1  0
  2  3  1  0
  3  4  2  0
  4  5  1  0
  5  6  2  0
  6  7  1  0
  7  8  2  0
  8  9  1  0
  9 10  2  0
 10 11  1  0
 11 12  1  0
 12 13  1  0
 13 14  1  0
 14 15  1  0
 15 16  1  0
 16 17  1  0
 17 18  1  0
 18 19  2  0
 19 20  1  0
 20 21  2  0
 21 22  1  0
 22 23  2  0
 23 24  1  0
 24 25  2  0
 25 26  1  0
 26 27  1  0
 27 28  2  0
 28 29  1  0
 29 30  2  0
 30 31  1  0
 31 32  2  0
 21 33  1  0
 33 34  2  0
  6 35  1  0
 35 36  2  0
 36 37  1  0
 36  3  1  0
 11  7  1  0
 17 12  1  0
 34 18  1  0
 26 22  1  0
 32 27  1  0
M  END
>  <Title>  (710) 
idABBHgen8

$$$$

     RDKit          2D

 38 42  0  0  0  0  0  0  0  0999 V2000
    3.0000    0.0000    0.0000 C   0  0  0  0  0  0  0  0  0  0  0  0
    1.5000    0.0000    0.0000 C   0  0  0  0  0  0  0  0  0  0  0  0
    0.7500   -1.2990    0.0000 C   0  0  0  0  0  0  0  0  0  0  0  0
   -0.7500   -1.2990    0.0000 C   0  0  0  0  0  0  0  0  0  0  0  0
   -1.5000    0.0000    0.0000 C   0  0  0  0  0  0  0  0  0  0  0  0
   -3.0000    0.0000    0.0000 C   0  0  0  0  0  0  0  0  0  0  0  0
   -3.7500   -1.2990    0.0000 O   0  0  0  0  0  0  0  0  0  0  0  0
   -3.7500    1.2990    0.0000 N   0  0  0  0  0  0  0  0  0  0  0  0
   -5.2500    1.2990    0.0000 C   0  0  0  0  0  0  0  0  0  0  0  0
   -6.1317    0.0855    0.0000 N   0  0  0  0  0  0  0  0  0  0  0  0
   -7.5583    0.5490    0.0000 N   0  0  0  0  0  0  0  0  0  0  0  0
   -7.5583    2.0490    0.0000 N   0  0  0  0  0  0  0  0  0  0  0  0
   -6.1317    2.5126    0.0000 N   0  0  0  0  0  0  0  0  0  0  0  0
   -5.6682    3.9391    0.0000 C   0  0  0  0  0  0  0  0  0  0  0  0
   -4.2009    4.2510    0.0000 C   0  0  0  0  0  0  0  0  0  0  0  0
   -3.7374    5.6776    0.0000 C   0  0  0  0  0  0  0  0  0  0  0  0
   -4.7411    6.7923    0.0000 C   0  0  0  0  0  0  0  0  0  0  0  0
   -6.2083    6.4805    0.0000 C   0  0  0  0  0  0  0  0  0  0  0  0
   -6.6718    5.0539    0.0000 C   0  0  0  0  0  0  0  0  0  0  0  0
   -8.1391    4.7420    0.0000 C   0  0  0  0  0  0  0  0  0  0  0  0
   -8.7492    3.3717    0.0000 N   0  0  0  0  0  0  0  0  0  0  0  0
  -10.2410    3.5285    0.0000 N   0  0  0  0  0  0  0  0  0  0  0  0
  -10.5528    4.9957    0.0000 N   0  0  0  0  0  0  0  0  0  0  0  0
   -9.2538    5.7457    0.0000 N   0  0  0  0  0  0  0  0  0  0  0  0
   -9.0970    7.2375    0.0000 C   0  0  0  0  0  0  0  0  0  0  0  0
   -7.7267    7.8476    0.0000 C   0  0  0  0  0  0  0  0  0  0  0  0
   -7.5699    9.3394    0.0000 C   0  0  0  0  0  0  0  0  0  0  0  0
   -8.7834   10.2210    0.0000 C   0  0  0  0  0  0  0  0  0  0  0  0
   -8.6266   11.7128    0.0000 C   0  0  0  0  0  0  0  0  0  0  0  0
   -9.8401   12.5945    0.0000 O   0  0  0  0  0  0  0  0  0  0  0  0
   -7.2563   12.3229    0.0000 N   0  0  0  0  0  0  0  0  0  0  0  0
   -7.0995   13.8147    0.0000 O   0  0  0  0  0  0  0  0  0  0  0  0
  -10.1537    9.6109    0.0000 N   0  0  0  0  0  0  0  0  0  0  0  0
  -10.3105    8.1192    0.0000 C   0  0  0  0  0  0  0  0  0  0  0  0
  -11.6808    7.5090    0.0000 O   0  0  0  0  0  0  0  0  0  0  0  0
   -0.7500    1.2990    0.0000 N   0  0  0  0  0  0  0  0  0  0  0  0
    0.7500    1.2990    0.0000 C   0  0  0  0  0  0  0  0  0  0  0  0
    1.5000    2.5981    0.0000 O   0  0  0  0  0  0  0  0  0  0  0  0
  1  2  1  0
  2  3  2  0
  3  4  1  0
  4  5  2  0
  5  6  1  0
  6  7  2  0
  6  8  1  0
  8  9  1  0
  9 10  2  0
 10 11  1  0
 11 12  2  0
 12 13  1  0
 13 14  1  0
 14 15  1  0
 15 16  1  0
 16 17  1  0
 17 18  1  0
 18 19  1  0
 19 20  1  0
 20 21  2  0
 21 22  1  0
 22 23  2  0
 23 24  1  0
 24 25  1  0
 25 26  2  0
 26 27  1  0
 27 28  2  0
 28 29  1  0
 29 30  2  0
 29 31  1  0
 31 32  1  0
 28 33  1  0
 33 34  1  0
 34 35  2  0
  5 36  1  0
 36 37  1  0
 37 38  2  0
 37  2  1  0
 13  9  1  0
 19 14  1  0
 24 20  1  0
 34 25  1  0
M  END
>  <Title>  (711) 
idABBIgen8

$$$$

     RDKit          2D

 16 17  0  0  0  0  0  0  0  0999 V2000
    3.0911    5.8579    0.0000 C   0  0  0  0  0  0  0  0  0  0  0  0
    2.8073    4.3850    0.0000 C   0  0  0  0  0  0  0  0  0  0  0  0
    3.9409    3.4027    0.0000 C   0  0  0  0  0  0  0  0  0  0  0  0
    3.6570    1.9298    0.0000 C   0  0  0  0  0  0  0  0  0  0  0  0
    2.2395    1.4392    0.0000 C   0  0  0  0  0  0  0  0  0  0  0  0
    2.6621    0.0000    0.0000 C   0  0  0  0  0  0  0  0  0  0  0  0
    2.2395   -1.4392    0.0000 C   0  0  0  0  0  0  0  0  0  0  0  0
    1.1059   -2.4215    0.0000 C   0  0  0  0  0  0  0  0  0  0  0  0
   -0.3789   -2.6350    0.0000 C   0  0  0  0  0  0  0  0  0  0  0  0
   -1.7433   -2.0119    0.0000 C   0  0  0  0  0  0  0  0  0  0  0  0
   -2.5543   -0.7500    0.0000 C   0  0  0  0  0  0  0  0  0  0  0  0
   -2.5543    0.7500    0.0000 C   0  0  0  0  0  0  0  0  0  0  0  0
   -1.7433    2.0119    0.0000 C   0  0  0  0  0  0  0  0  0  0  0  0
   -0.3789    2.6350    0.0000 C   0  0  0  0  0  0  0  0  0  0  0  0
    1.1059    2.4215    0.0000 C   0  0  0  0  0  0  0  0  0  0  0  0
    1.3898    3.8944    0.0000 N   0  0  0  0  0  0  0  0  0  0  0  0
  1  2  1  0
  2  3  2  0
  3  4  1  0
  4  5  2  0
  5  6  1  0
  6  7  2  0
  7  8  1  0
  8  9  2  0
  9 10  1  0
 10 11  2  0
 11 12  1  0
 12 13  2  0
 13 14  1  0
 14 15  2  0
 15 16  1  0
 16  2  1  0
 15  5  1  0
M  END
>  <Title>  (712) 
idABBJgen8

$$$$

     RDKit          2D

 23 23  0  0  0  0  0  0  0  0999 V2000
    6.7700    0.0000    0.0000 O   0  0  0  0  0  0  0  0  0  0  0  0
    5.2700    0.0000    0.0000 C   0  0  0  0  0  0  0  0  0  0  0  0
    5.0565   -1.4847    0.0000 C   0  0  0  0  0  0  0  0  0  0  0  0
    4.4334   -2.8492    0.0000 C   0  0  0  0  0  0  0  0  0  0  0  0
    3.4511   -3.9828    0.0000 C   0  0  0  0  0  0  0  0  0  0  0  0
    2.1892   -4.7938    0.0000 C   0  0  0  0  0  0  0  0  0  0  0  0
    0.7500   -5.2164    0.0000 C   0  0  0  0  0  0  0  0  0  0  0  0
   -0.7500   -5.2164    0.0000 C   0  0  0  0  0  0  0  0  0  0  0  0
   -2.1892   -4.7938    0.0000 C   0  0  0  0  0  0  0  0  0  0  0  0
   -3.4511   -3.9828    0.0000 C   0  0  0  0  0  0  0  0  0  0  0  0
   -4.4334   -2.8492    0.0000 C   0  0  0  0  0  0  0  0  0  0  0  0
   -5.0565   -1.4847    0.0000 C   0  0  0  0  0  0  0  0  0  0  0  0
   -5.2700    0.0000    0.0000 C   0  0  0  0  0  0  0  0  0  0  0  0
   -5.0565    1.4847    0.0000 C   0  0  0  0  0  0  0  0  0  0  0  0
   -4.4334    2.8492    0.0000 C   0  0  0  0  0  0  0  0  0  0  0  0
   -3.4511    3.9828    0.0000 C   0  0  0  0  0  0  0  0  0  0  0  0
   -2.1892    4.7938    0.0000 C   0  0  0  0  0  0  0  0  0  0  0  0
   -0.7500    5.2164    0.0000 C   0  0  0  0  0  0  0  0  0  0  0  0
    0.7500    5.2164    0.0000 C   0  0  0  0  0  0  0  0  0  0  0  0
    2.1892    4.7938    0.0000 C   0  0  0  0  0  0  0  0  0  0  0  0
    3.4511    3.9828    0.0000 C   0  0  0  0  0  0  0  0  0  0  0  0
    4.4334    2.8492    0.0000 C   0  0  0  0  0  0  0  0  0  0  0  0
    5.0565    1.4847    0.0000 C   0  0  0  0  0  0  0  0  0  0  0  0
  1  2  1  0
  2  3  2  0
  3  4  1  0
  4  5  2  0
  5  6  1  0
  6  7  2  0
  7  8  1  0
  8  9  2  0
  9 10  1  0
 10 11  2  0
 11 12  1  0
 12 13  2  0
 13 14  1  0
 14 15  2  0
 15 16  1  0
 16 17  2  0
 17 18  1  0
 18 19  2  0
 19 20  1  0
 20 21  2  0
 21 22  1  0
 22 23  2  0
 23  2  1  0
M  END
>  <Title>  (713) 
idABBKgen8

$$$$

     RDKit          2D

 31 35  0  0  0  0  0  0  0  0999 V2000
    7.5646   -0.1148    0.0000 C   0  0  0  0  0  0  0  0  0  0  0  0
    6.0974   -0.4266    0.0000 C   0  0  0  0  0  0  0  0  0  0  0  0
    4.9826    0.5771    0.0000 C   0  0  0  0  0  0  0  0  0  0  0  0
    3.6836   -0.1729    0.0000 C   0  0  0  0  0  0  0  0  0  0  0  0
    3.9955   -1.6402    0.0000 C   0  0  0  0  0  0  0  0  0  0  0  0
    2.9918   -2.7549    0.0000 N   0  0  0  0  0  0  0  0  0  0  0  0
    3.3037   -4.2221    0.0000 N   0  0  0  0  0  0  0  0  0  0  0  0
    2.0046   -4.9721    0.0000 N   0  0  0  0  0  0  0  0  0  0  0  0
    0.8899   -3.9684    0.0000 C   0  0  0  0  0  0  0  0  0  0  0  0
    1.5000   -2.5981    0.0000 C   0  0  0  0  0  0  0  0  0  0  0  0
    0.7500   -1.2990    0.0000 C   0  0  0  0  0  0  0  0  0  0  0  0
    1.5000    0.0000    0.0000 C   0  0  0  0  0  0  0  0  0  0  0  0
    0.7500    1.2990    0.0000 C   0  0  0  0  0  0  0  0  0  0  0  0
   -0.7500    1.2990    0.0000 C   0  0  0  0  0  0  0  0  0  0  0  0
   -1.5000    0.0000    0.0000 C   0  0  0  0  0  0  0  0  0  0  0  0
   -0.7500   -1.2990    0.0000 C   0  0  0  0  0  0  0  0  0  0  0  0
   -1.5000   -2.5981    0.0000 N   0  0  0  0  0  0  0  0  0  0  0  0
   -0.8899   -3.9684    0.0000 N   0  0  0  0  0  0  0  0  0  0  0  0
   -2.0046   -4.9721    0.0000 N   0  0  0  0  0  0  0  0  0  0  0  0
   -3.3037   -4.2221    0.0000 N   0  0  0  0  0  0  0  0  0  0  0  0
   -2.9918   -2.7549    0.0000 C   0  0  0  0  0  0  0  0  0  0  0  0
   -3.9955   -1.6402    0.0000 C   0  0  0  0  0  0  0  0  0  0  0  0
   -3.5320   -0.2136    0.0000 C   0  0  0  0  0  0  0  0  0  0  0  0
   -4.5356    0.9012    0.0000 C   0  0  0  0  0  0  0  0  0  0  0  0
   -6.0029    0.5893    0.0000 C   0  0  0  0  0  0  0  0  0  0  0  0
   -7.0066    1.7040    0.0000 C   0  0  0  0  0  0  0  0  0  0  0  0
   -6.4664   -0.8373    0.0000 N   0  0  0  0  0  0  0  0  0  0  0  0
   -5.4627   -1.9520    0.0000 C   0  0  0  0  0  0  0  0  0  0  0  0
   -5.9262   -3.3786    0.0000 O   0  0  0  0  0  0  0  0  0  0  0  0
    5.4873   -1.7969    0.0000 C   0  0  0  0  0  0  0  0  0  0  0  0
    6.2373   -3.0960    0.0000 O   0  0  0  0  0  0  0  0  0  0  0  0
  1  2  1  0
  2  3  2  0
  3  4  1  0
  4  5  2  0
  5  6  1  0
  6  7  1  0
  7  8  2  0
  8  9  1  0
  9 10  2  0
 10 11  1  0
 11 12  1  0
 12 13  1  0
 13 14  1  0
 14 15  1  0
 15 16  1  0
 16 17  1  0
 17 18  1  0
 18 19  2  0
 19 20  1  0
 20 21  2  0
 21 22  1  0
 22 23  2  0
 23 24  1  0
 24 25  2  0
 25 26  1  0
 25 27  1  0
 27 28  1  0
 28 29  2  0
  5 30  1  0
 30 31  2  0
 30  2  1  0
 10  6  1  0
 16 11  1  0
 21 17  1  0
 28 22  1  0
M  END
>  <Title>  (714) 
idABBLgen8

$$$$

     RDKit          2D

 24 26  0  0  0  0  0  0  0  0999 V2000
    3.2286   -0.0000    0.0000 C   0  0  0  0  0  0  0  0  0  0  0  0
    1.7286    0.0000    0.0000 C   0  0  0  0  0  0  0  0  0  0  0  0
    1.0777    1.3515    0.0000 C   0  0  0  0  0  0  0  0  0  0  0  0
   -0.3846    1.6852    0.0000 C   0  0  0  0  0  0  0  0  0  0  0  0
   -1.5574    0.7500    0.0000 C   0  0  0  0  0  0  0  0  0  0  0  0
   -2.9088    1.4008    0.0000 C   0  0  0  0  0  0  0  0  0  0  0  0
   -4.1482    0.5558    0.0000 O   0  0  0  0  0  0  0  0  0  0  0  0
   -3.0209    2.8966    0.0000 N   0  0  0  0  0  0  0  0  0  0  0  0
   -4.3724    3.5475    0.0000 C   0  0  0  0  0  0  0  0  0  0  0  0
   -5.6933    2.8367    0.0000 N   0  0  0  0  0  0  0  0  0  0  0  0
   -6.7775    3.8732    0.0000 N   0  0  0  0  0  0  0  0  0  0  0  0
   -6.1267    5.2247    0.0000 N   0  0  0  0  0  0  0  0  0  0  0  0
   -4.6402    5.0234    0.0000 N   0  0  0  0  0  0  0  0  0  0  0  0
   -3.6036    6.1075    0.0000 C   0  0  0  0  0  0  0  0  0  0  0  0
   -3.8715    7.5834    0.0000 C   0  0  0  0  0  0  0  0  0  0  0  0
   -2.5506    8.2942    0.0000 C   0  0  0  0  0  0  0  0  0  0  0  0
   -1.4664    7.2576    0.0000 C   0  0  0  0  0  0  0  0  0  0  0  0
    0.0095    7.5255    0.0000 C   0  0  0  0  0  0  0  0  0  0  0  0
   -2.1172    5.9062    0.0000 C   0  0  0  0  0  0  0  0  0  0  0  0
   -1.4064    4.5853    0.0000 O   0  0  0  0  0  0  0  0  0  0  0  0
   -1.5574   -0.7500    0.0000 N   0  0  0  0  0  0  0  0  0  0  0  0
   -0.3846   -1.6852    0.0000 C   0  0  0  0  0  0  0  0  0  0  0  0
   -0.7184   -3.1476    0.0000 O   0  0  0  0  0  0  0  0  0  0  0  0
    1.0777   -1.3515    0.0000 N   0  0  0  0  0  0  0  0  0  0  0  0
  1  2  1  0
  2  3  2  0
  3  4  1  0
  4  5  2  0
  5  6  1  0
  6  7  2  0
  6  8  1  0
  8  9  1  0
  9 10  2  0
 10 11  1  0
 11 12  2  0
 12 13  1  0
 13 14  1  0
 14 15  2  0
 15 16  1  0
 16 17  2  0
 17 18  1  0
 17 19  1  0
 19 20  2  0
  5 21  1  0
 21 22  1  0
 22 23  2  0
 22 24  1  0
 24  2  1  0
 13  9  1  0
 19 14  1  0
M  END
>  <Title>  (715) 
idABBMgen8

$$$$

     RDKit          2D

 43 49  0  0  0  0  0  0  0  0999 V2000
    2.6401   10.3149    0.0000 C   0  0  0  0  0  0  0  0  0  0  0  0
    3.8536    9.4332    0.0000 C   0  0  0  0  0  0  0  0  0  0  0  0
    5.0672   10.3149    0.0000 C   0  0  0  0  0  0  0  0  0  0  0  0
    6.5672   10.3149    0.0000 C   0  0  0  0  0  0  0  0  0  0  0  0
    7.7807    9.4332    0.0000 C   0  0  0  0  0  0  0  0  0  0  0  0
    8.2442    8.0066    0.0000 C   0  0  0  0  0  0  0  0  0  0  0  0
    7.7807    6.5801    0.0000 N   0  0  0  0  0  0  0  0  0  0  0  0
    6.5672    5.6984    0.0000 N   0  0  0  0  0  0  0  0  0  0  0  0
    5.0672    5.6984    0.0000 N   0  0  0  0  0  0  0  0  0  0  0  0
    3.8536    6.5801    0.0000 N   0  0  0  0  0  0  0  0  0  0  0  0
    2.6401    5.6984    0.0000 C   0  0  0  0  0  0  0  0  0  0  0  0
    1.2135    6.1619    0.0000 N   0  0  0  0  0  0  0  0  0  0  0  0
    0.3318    4.9484    0.0000 N   0  0  0  0  0  0  0  0  0  0  0  0
    1.2135    3.7348    0.0000 N   0  0  0  0  0  0  0  0  0  0  0  0
    2.6401    4.1984    0.0000 N   0  0  0  0  0  0  0  0  0  0  0  0
    3.8536    3.3167    0.0000 C   0  0  0  0  0  0  0  0  0  0  0  0
    5.2802    3.7802    0.0000 C   0  0  0  0  0  0  0  0  0  0  0  0
    6.1619    2.5667    0.0000 C   0  0  0  0  0  0  0  0  0  0  0  0
    5.2802    1.3532    0.0000 C   0  0  0  0  0  0  0  0  0  0  0  0
    5.7437   -0.0734    0.0000 C   0  0  0  0  0  0  0  0  0  0  0  0
    4.8621   -1.2869    0.0000 N   0  0  0  0  0  0  0  0  0  0  0  0
    5.7437   -2.5005    0.0000 N   0  0  0  0  0  0  0  0  0  0  0  0
    7.1703   -2.0369    0.0000 N   0  0  0  0  0  0  0  0  0  0  0  0
    7.1703   -0.5369    0.0000 N   0  0  0  0  0  0  0  0  0  0  0  0
    8.3839    0.3447    0.0000 C   0  0  0  0  0  0  0  0  0  0  0  0
    8.3839    1.8447    0.0000 C   0  0  0  0  0  0  0  0  0  0  0  0
    9.8104    2.3083    0.0000 N   0  0  0  0  0  0  0  0  0  0  0  0
   10.6921    1.0947    0.0000 N   0  0  0  0  0  0  0  0  0  0  0  0
    9.8104   -0.1188    0.0000 N   0  0  0  0  0  0  0  0  0  0  0  0
   10.2740   -1.5454    0.0000 C   0  0  0  0  0  0  0  0  0  0  0  0
    9.3923   -2.7589    0.0000 N   0  0  0  0  0  0  0  0  0  0  0  0
   10.2740   -3.9724    0.0000 N   0  0  0  0  0  0  0  0  0  0  0  0
   11.7006   -3.5089    0.0000 N   0  0  0  0  0  0  0  0  0  0  0  0
   11.7006   -2.0089    0.0000 N   0  0  0  0  0  0  0  0  0  0  0  0
   12.9141   -1.1272    0.0000 C   0  0  0  0  0  0  0  0  0  0  0  0
   12.7573    0.3646    0.0000 C   0  0  0  0  0  0  0  0  0  0  0  0
   13.9708    1.2462    0.0000 C   0  0  0  0  0  0  0  0  0  0  0  0
   15.3411    0.6361    0.0000 C   0  0  0  0  0  0  0  0  0  0  0  0
   15.4979   -0.8556    0.0000 C   0  0  0  0  0  0  0  0  0  0  0  0
   14.2844   -1.7373    0.0000 C   0  0  0  0  0  0  0  0  0  0  0  0
    3.8536    1.8167    0.0000 C   0  0  0  0  0  0  0  0  0  0  0  0
    2.6401    0.9350    0.0000 O   0  0  0  0  0  0  0  0  0  0  0  0
    3.3901    8.0066    0.0000 N   0  0  0  0  0  0  0  0  0  0  0  0
  1  2  1  0
  2  3  2  0
  3  4  1  0
  4  5  2  0
  5  6  2  0
  6  7  2  0
  7  8  1  0
  8  9  2  0
  9 10  1  0
 10 11  1  0
 11 12  2  0
 12 13  1  0
 13 14  2  0
 14 15  1  0
 15 16  1  0
 16 17  2  0
 17 18  1  0
 18 19  2  0
 19 20  1  0
 20 21  2  0
 21 22  1  0
 22 23  2  0
 23 24  1  0
 24 25  1  0
 25 26  2  0
 26 27  1  0
 27 28  2  0
 28 29  1  0
 29 30  1  0
 30 31  2  0
 31 32  1  0
 32 33  2  0
 33 34  1  0
 34 35  1  0
 35 36  2  0
 36 37  1  0
 37 38  2  0
 38 39  1  0
 39 40  2  0
 19 41  1  0
 41 42  2  0
 10 43  1  0
 43  2  1  0
 15 11  1  0
 41 16  1  0
 24 20  1  0
 29 25  1  0
 34 30  1  0
 40 35  1  0
M  END
>  <Title>  (716) 
idABBNgen8

$$$$

     RDKit          2D

 62 71  0  0  0  0  0  0  0  0999 V2000
    3.0000    0.0000    0.0000 C   0  0  0  0  0  0  0  0  0  0  0  0
    1.5000    0.0000    0.0000 C   0  0  0  0  0  0  0  0  0  0  0  0
    0.7500   -1.2990    0.0000 C   0  0  0  0  0  0  0  0  0  0  0  0
   -0.7500   -1.2990    0.0000 C   0  0  0  0  0  0  0  0  0  0  0  0
   -1.5000    0.0000    0.0000 C   0  0  0  0  0  0  0  0  0  0  0  0
   -3.0000    0.0000    0.0000 C   0  0  0  0  0  0  0  0  0  0  0  0
   -3.8817   -1.2135    0.0000 N   0  0  0  0  0  0  0  0  0  0  0  0
   -5.3083   -0.7500    0.0000 N   0  0  0  0  0  0  0  0  0  0  0  0
   -5.3083    0.7500    0.0000 N   0  0  0  0  0  0  0  0  0  0  0  0
   -3.8817    1.2135    0.0000 N   0  0  0  0  0  0  0  0  0  0  0  0
   -3.4182    2.6401    0.0000 C   0  0  0  0  0  0  0  0  0  0  0  0
   -1.9509    2.9520    0.0000 C   0  0  0  0  0  0  0  0  0  0  0  0
   -1.4874    4.3786    0.0000 C   0  0  0  0  0  0  0  0  0  0  0  0
   -2.4911    5.4933    0.0000 C   0  0  0  0  0  0  0  0  0  0  0  0
   -3.9583    5.1814    0.0000 C   0  0  0  0  0  0  0  0  0  0  0  0
   -4.4218    3.7548    0.0000 C   0  0  0  0  0  0  0  0  0  0  0  0
   -5.8891    3.4430    0.0000 C   0  0  0  0  0  0  0  0  0  0  0  0
   -6.4992    2.0726    0.0000 C   0  0  0  0  0  0  0  0  0  0  0  0
   -7.9910    2.2294    0.0000 N   0  0  0  0  0  0  0  0  0  0  0  0
   -8.3028    3.6967    0.0000 N   0  0  0  0  0  0  0  0  0  0  0  0
   -7.0038    4.4467    0.0000 N   0  0  0  0  0  0  0  0  0  0  0  0
   -6.8470    5.9384    0.0000 C   0  0  0  0  0  0  0  0  0  0  0  0
   -5.4767    6.5485    0.0000 C   0  0  0  0  0  0  0  0  0  0  0  0
   -5.3199    8.0403    0.0000 C   0  0  0  0  0  0  0  0  0  0  0  0
   -6.5334    8.9220    0.0000 C   0  0  0  0  0  0  0  0  0  0  0  0
   -6.3766   10.4138    0.0000 C   0  0  0  0  0  0  0  0  0  0  0  0
   -7.4913   11.4175    0.0000 N   0  0  0  0  0  0  0  0  0  0  0  0
   -6.8812   12.7878    0.0000 N   0  0  0  0  0  0  0  0  0  0  0  0
   -5.3894   12.6310    0.0000 N   0  0  0  0  0  0  0  0  0  0  0  0
   -5.0776   11.1638    0.0000 N   0  0  0  0  0  0  0  0  0  0  0  0
   -3.7073   10.5537    0.0000 C   0  0  0  0  0  0  0  0  0  0  0  0
   -3.5505    9.0619    0.0000 C   0  0  0  0  0  0  0  0  0  0  0  0
   -2.1801    8.4518    0.0000 C   0  0  0  0  0  0  0  0  0  0  0  0
   -0.9666    9.3335    0.0000 C   0  0  0  0  0  0  0  0  0  0  0  0
   -1.1234   10.8253    0.0000 C   0  0  0  0  0  0  0  0  0  0  0  0
   -2.4937   11.4354    0.0000 C   0  0  0  0  0  0  0  0  0  0  0  0
   -7.9037    8.3119    0.0000 C   0  0  0  0  0  0  0  0  0  0  0  0
   -8.0605    6.8201    0.0000 C   0  0  0  0  0  0  0  0  0  0  0  0
   -9.4308    6.2100    0.0000 C   0  0  0  0  0  0  0  0  0  0  0  0
  -10.6444    7.0917    0.0000 C   0  0  0  0  0  0  0  0  0  0  0  0
  -12.0147    6.4816    0.0000 C   0  0  0  0  0  0  0  0  0  0  0  0
  -12.1715    4.9898    0.0000 C   0  0  0  0  0  0  0  0  0  0  0  0
  -13.5418    4.3797    0.0000 C   0  0  0  0  0  0  0  0  0  0  0  0
  -14.7553    5.2614    0.0000 C   0  0  0  0  0  0  0  0  0  0  0  0
  -16.1256    4.6513    0.0000 C   0  0  0  0  0  0  0  0  0  0  0  0
  -16.2824    3.1595    0.0000 O   0  0  0  0  0  0  0  0  0  0  0  0
  -17.3392    5.5329    0.0000 N   0  0  0  0  0  0  0  0  0  0  0  0
  -18.7095    4.9228    0.0000 C   0  0  0  0  0  0  0  0  0  0  0  0
  -19.0213    3.4556    0.0000 N   0  0  0  0  0  0  0  0  0  0  0  0
  -20.5131    3.2988    0.0000 N   0  0  0  0  0  0  0  0  0  0  0  0
  -21.1232    4.6691    0.0000 N   0  0  0  0  0  0  0  0  0  0  0  0
  -20.0085    5.6728    0.0000 N   0  0  0  0  0  0  0  0  0  0  0  0
  -20.1653    7.1646    0.0000 C   0  0  0  0  0  0  0  0  0  0  0  0
  -18.9518    8.0463    0.0000 C   0  0  0  0  0  0  0  0  0  0  0  0
  -19.1086    9.5381    0.0000 C   0  0  0  0  0  0  0  0  0  0  0  0
  -20.4789   10.1482    0.0000 C   0  0  0  0  0  0  0  0  0  0  0  0
  -21.6924    9.2665    0.0000 C   0  0  0  0  0  0  0  0  0  0  0  0
  -21.5356    7.7747    0.0000 C   0  0  0  0  0  0  0  0  0  0  0  0
  -10.9579    4.1081    0.0000 C   0  0  0  0  0  0  0  0  0  0  0  0
   -9.5876    4.7182    0.0000 C   0  0  0  0  0  0  0  0  0  0  0  0
   -0.7500    1.2990    0.0000 C   0  0  0  0  0  0  0  0  0  0  0  0
    0.7500    1.2990    0.0000 C   0  0  0  0  0  0  0  0  0  0  0  0
  1  2  1  0
  2  3  2  0
  3  4  1  0
  4  5  2  0
  5  6  1  0
  6  7  2  0
  7  8  1  0
  8  9  2  0
  9 10  1  0
 10 11  1  0
 11 12  1  0
 12 13  1  0
 13 14  1  0
 14 15  1  0
 15 16  1  0
 16 17  1  0
 17 18  2  0
 18 19  1  0
 19 20  2  0
 20 21  1  0
 21 22  1  0
 22 23  2  0
 23 24  1  0
 24 25  2  0
 25 26  1  0
 26 27  2  0
 27 28  1  0
 28 29  2  0
 29 30  1  0
 30 31  1  0
 31 32  2  0
 32 33  1  0
 33 34  2  0
 34 35  1  0
 35 36  2  0
 25 37  1  0
 37 38  2  0
 38 39  1  0
 39 40  2  0
 40 41  1  0
 41 42  2  0
 42 43  1  0
 43 44  1  0
 44 45  1  0
 45 46  2  0
 45 47  1  0
 47 48  1  0
 48 49  2  0
 49 50  1  0
 50 51  2  0
 51 52  1  0
 52 53  1  0
 53 54  2  0
 54 55  1  0
 55 56  2  0
 56 57  1  0
 57 58  2  0
 42 59  1  0
 59 60  2  0
  5 61  1  0
 61 62  2  0
 62  2  1  0
 10  6  1  0
 16 11  1  0
 21 17  1  0
 38 22  1  0
 60 39  1  0
 30 26  1  0
 36 31  1  0
 52 48  1  0
 58 53  1  0
M  END
>  <Title>  (717) 
idABBOgen8

$$$$

     RDKit          2D

 30 34  0  0  0  0  0  0  0  0999 V2000
   -1.2266    3.6245    0.0000 C   0  0  0  0  0  0  0  0  0  0  0  0
    0.1437    3.0144    0.0000 C   0  0  0  0  0  0  0  0  0  0  0  0
    0.4556    1.5472    0.0000 C   0  0  0  0  0  0  0  0  0  0  0  0
    1.9474    1.3904    0.0000 C   0  0  0  0  0  0  0  0  0  0  0  0
    2.5575    2.7607    0.0000 C   0  0  0  0  0  0  0  0  0  0  0  0
    4.0247    3.0725    0.0000 N   0  0  0  0  0  0  0  0  0  0  0  0
    4.6348    4.4429    0.0000 N   0  0  0  0  0  0  0  0  0  0  0  0
    6.1266    4.2861    0.0000 N   0  0  0  0  0  0  0  0  0  0  0  0
    6.4385    2.8189    0.0000 N   0  0  0  0  0  0  0  0  0  0  0  0
    5.1394    2.0689    0.0000 C   0  0  0  0  0  0  0  0  0  0  0  0
    4.9826    0.5771    0.0000 C   0  0  0  0  0  0  0  0  0  0  0  0
    6.0974   -0.4266    0.0000 C   0  0  0  0  0  0  0  0  0  0  0  0
    5.4873   -1.7969    0.0000 C   0  0  0  0  0  0  0  0  0  0  0  0
    3.9955   -1.6402    0.0000 C   0  0  0  0  0  0  0  0  0  0  0  0
    2.9918   -2.7549    0.0000 N   0  0  0  0  0  0  0  0  0  0  0  0
    1.5000   -2.5981    0.0000 N   0  0  0  0  0  0  0  0  0  0  0  0
    0.8899   -3.9684    0.0000 N   0  0  0  0  0  0  0  0  0  0  0  0
    2.0046   -4.9721    0.0000 N   0  0  0  0  0  0  0  0  0  0  0  0
    3.3037   -4.2221    0.0000 C   0  0  0  0  0  0  0  0  0  0  0  0
    4.6740   -4.8322    0.0000 C   0  0  0  0  0  0  0  0  0  0  0  0
    4.8308   -6.3240    0.0000 C   0  0  0  0  0  0  0  0  0  0  0  0
    6.2011   -6.9341    0.0000 C   0  0  0  0  0  0  0  0  0  0  0  0
    7.4146   -6.0524    0.0000 C   0  0  0  0  0  0  0  0  0  0  0  0
    8.7849   -6.6625    0.0000 C   0  0  0  0  0  0  0  0  0  0  0  0
    7.2578   -4.5606    0.0000 C   0  0  0  0  0  0  0  0  0  0  0  0
    5.8875   -3.9505    0.0000 C   0  0  0  0  0  0  0  0  0  0  0  0
    3.6836   -0.1729    0.0000 C   0  0  0  0  0  0  0  0  0  0  0  0
    2.3133    0.4372    0.0000 O   0  0  0  0  0  0  0  0  0  0  0  0
    1.4428    3.7644    0.0000 C   0  0  0  0  0  0  0  0  0  0  0  0
    1.5996    5.2562    0.0000 O   0  0  0  0  0  0  0  0  0  0  0  0
  1  2  1  0
  2  3  2  0
  3  4  1  0
  4  5  2  0
  5  6  1  0
  6  7  1  0
  7  8  2  0
  8  9  1  0
  9 10  2  0
 10 11  1  0
 11 12  2  0
 12 13  1  0
 13 14  2  0
 14 15  1  0
 15 16  1  0
 16 17  2  0
 17 18  1  0
 18 19  2  0
 19 20  1  0
 20 21  2  0
 21 22  1  0
 22 23  2  0
 23 24  1  0
 23 25  1  0
 25 26  2  0
 14 27  1  0
 27 28  2  0
  5 29  1  0
 29 30  2  0
 29  2  1  0
 10  6  1  0
 27 11  1  0
 19 15  1  0
 26 20  1  0
M  END
>  <Title>  (718) 
idABBPgen8

$$$$

     RDKit          2D

 14 14  0  0  0  0  0  0  0  0999 V2000
    4.6339    0.0000    0.0000 O   0  0  0  0  0  0  0  0  0  0  0  0
    3.1339    0.0000    0.0000 C   0  0  0  0  0  0  0  0  0  0  0  0
    2.7750    1.4564    0.0000 C   0  0  0  0  0  0  0  0  0  0  0  0
    1.7803    2.5792    0.0000 C   0  0  0  0  0  0  0  0  0  0  0  0
    0.3778    3.1111    0.0000 C   0  0  0  0  0  0  0  0  0  0  0  0
   -1.1113    2.9303    0.0000 C   0  0  0  0  0  0  0  0  0  0  0  0
   -2.3458    2.0782    0.0000 C   0  0  0  0  0  0  0  0  0  0  0  0
   -3.0429    0.7500    0.0000 C   0  0  0  0  0  0  0  0  0  0  0  0
   -3.0429   -0.7500    0.0000 C   0  0  0  0  0  0  0  0  0  0  0  0
   -2.3458   -2.0782    0.0000 C   0  0  0  0  0  0  0  0  0  0  0  0
   -1.1113   -2.9303    0.0000 C   0  0  0  0  0  0  0  0  0  0  0  0
    0.3778   -3.1111    0.0000 C   0  0  0  0  0  0  0  0  0  0  0  0
    1.7803   -2.5792    0.0000 C   0  0  0  0  0  0  0  0  0  0  0  0
    2.7750   -1.4564    0.0000 C   0  0  0  0  0  0  0  0  0  0  0  0
  1  2  1  0
  2  3  1  0
  3  4  2  0
  4  5  1  0
  5  6  2  0
  6  7  1  0
  7  8  2  0
  8  9  1  0
  9 10  2  0
 10 11  1  0
 11 12  1  0
 12 13  1  0
 13 14  1  0
 14  2  1  0
M  END
>  <Title>  (719) 
idABBQgen8

$$$$

     RDKit          2D

 23 25  0  0  0  0  0  0  0  0999 V2000
    3.4598   -0.0000    0.0000 C   0  0  0  0  0  0  0  0  0  0  0  0
    1.9598    0.0000    0.0000 C   0  0  0  0  0  0  0  0  0  0  0  0
    1.3858   -1.3858    0.0000 N   0  0  0  0  0  0  0  0  0  0  0  0
   -0.0000   -1.9598    0.0000 C   0  0  0  0  0  0  0  0  0  0  0  0
   -1.3858   -1.3858    0.0000 C   0  0  0  0  0  0  0  0  0  0  0  0
   -1.9598    0.0000    0.0000 C   0  0  0  0  0  0  0  0  0  0  0  0
   -1.3858    1.3858    0.0000 C   0  0  0  0  0  0  0  0  0  0  0  0
   -2.4465    2.4465    0.0000 N   0  0  0  0  0  0  0  0  0  0  0  0
   -3.9280    2.2118    0.0000 N   0  0  0  0  0  0  0  0  0  0  0  0
   -4.6090    3.5483    0.0000 N   0  0  0  0  0  0  0  0  0  0  0  0
   -3.5483    4.6090    0.0000 N   0  0  0  0  0  0  0  0  0  0  0  0
   -2.2118    3.9280    0.0000 C   0  0  0  0  0  0  0  0  0  0  0  0
   -0.8753    4.6090    0.0000 C   0  0  0  0  0  0  0  0  0  0  0  0
    0.3827    3.7920    0.0000 C   0  0  0  0  0  0  0  0  0  0  0  0
    1.7192    4.4730    0.0000 C   0  0  0  0  0  0  0  0  0  0  0  0
    1.7977    5.9710    0.0000 C   0  0  0  0  0  0  0  0  0  0  0  0
    3.1342    6.6520    0.0000 C   0  0  0  0  0  0  0  0  0  0  0  0
    0.5397    6.7879    0.0000 N   0  0  0  0  0  0  0  0  0  0  0  0
   -0.7968    6.1069    0.0000 C   0  0  0  0  0  0  0  0  0  0  0  0
   -2.0548    6.9239    0.0000 O   0  0  0  0  0  0  0  0  0  0  0  0
    0.0000    1.9598    0.0000 N   0  0  0  0  0  0  0  0  0  0  0  0
    1.3858    1.3858    0.0000 C   0  0  0  0  0  0  0  0  0  0  0  0
    2.4465    2.4465    0.0000 O   0  0  0  0  0  0  0  0  0  0  0  0
  1  2  1  0
  2  3  2  0
  3  4  1  0
  4  5  2  0
  5  6  1  0
  6  7  2  0
  7  8  1  0
  8  9  1  0
  9 10  2  0
 10 11  1  0
 11 12  2  0
 12 13  1  0
 13 14  2  0
 14 15  1  0
 15 16  2  0
 16 17  1  0
 16 18  1  0
 18 19  1  0
 19 20  2  0
  7 21  1  0
 21 22  1  0
 22 23  2  0
 22  2  1  0
 12  8  1  0
 19 13  1  0
M  END
>  <Title>  (720) 
idABBRgen8

$$$$

     RDKit          2D

 13 13  0  0  0  0  0  0  0  0999 V2000
    4.3978    0.0000    0.0000 O   0  0  0  0  0  0  0  0  0  0  0  0
    2.8978    0.0000    0.0000 C   0  0  0  0  0  0  0  0  0  0  0  0
    2.5095   -1.4489    0.0000 C   0  0  0  0  0  0  0  0  0  0  0  0
    1.4489   -2.5095    0.0000 C   0  0  0  0  0  0  0  0  0  0  0  0
   -0.0000   -2.8978    0.0000 C   0  0  0  0  0  0  0  0  0  0  0  0
   -1.4489   -2.5095    0.0000 C   0  0  0  0  0  0  0  0  0  0  0  0
   -2.5095   -1.4489    0.0000 C   0  0  0  0  0  0  0  0  0  0  0  0
   -2.8978    0.0000    0.0000 C   0  0  0  0  0  0  0  0  0  0  0  0
   -2.5095    1.4489    0.0000 C   0  0  0  0  0  0  0  0  0  0  0  0
   -1.4489    2.5095    0.0000 C   0  0  0  0  0  0  0  0  0  0  0  0
    0.0000    2.8978    0.0000 O   0  0  0  0  0  0  0  0  0  0  0  0
    1.4489    2.5095    0.0000 C   0  0  0  0  0  0  0  0  0  0  0  0
    2.5095    1.4489    0.0000 C   0  0  0  0  0  0  0  0  0  0  0  0
  1  2  1  0
  2  3  2  0
  3  4  1  0
  4  5  2  0
  5  6  1  0
  6  7  2  0
  7  8  1  0
  8  9  2  0
  9 10  1  0
 10 11  1  0
 11 12  1  0
 12 13  2  0
 13  2  1  0
M  END
>  <Title>  (721) 
idABBSgen8

$$$$

     RDKit          2D

 21 21  0  0  0  0  0  0  0  0999 V2000
    6.2943    0.0000    0.0000 O   0  0  0  0  0  0  0  0  0  0  0  0
    4.7943    0.0000    0.0000 C   0  0  0  0  0  0  0  0  0  0  0  0
    4.5597   -1.4815    0.0000 C   0  0  0  0  0  0  0  0  0  0  0  0
    3.8787   -2.8180    0.0000 C   0  0  0  0  0  0  0  0  0  0  0  0
    2.8180   -3.8787    0.0000 C   0  0  0  0  0  0  0  0  0  0  0  0
    1.4815   -4.5597    0.0000 C   0  0  0  0  0  0  0  0  0  0  0  0
   -0.0000   -4.7943    0.0000 C   0  0  0  0  0  0  0  0  0  0  0  0
   -1.4815   -4.5597    0.0000 C   0  0  0  0  0  0  0  0  0  0  0  0
   -2.8180   -3.8787    0.0000 C   0  0  0  0  0  0  0  0  0  0  0  0
   -3.8787   -2.8180    0.0000 C   0  0  0  0  0  0  0  0  0  0  0  0
   -4.5597   -1.4815    0.0000 C   0  0  0  0  0  0  0  0  0  0  0  0
   -4.7943    0.0000    0.0000 C   0  0  0  0  0  0  0  0  0  0  0  0
   -4.5597    1.4815    0.0000 C   0  0  0  0  0  0  0  0  0  0  0  0
   -3.8787    2.8180    0.0000 C   0  0  0  0  0  0  0  0  0  0  0  0
   -2.8180    3.8787    0.0000 C   0  0  0  0  0  0  0  0  0  0  0  0
   -1.4815    4.5597    0.0000 C   0  0  0  0  0  0  0  0  0  0  0  0
    0.0000    4.7943    0.0000 C   0  0  0  0  0  0  0  0  0  0  0  0
    1.4815    4.5597    0.0000 C   0  0  0  0  0  0  0  0  0  0  0  0
    2.8180    3.8787    0.0000 C   0  0  0  0  0  0  0  0  0  0  0  0
    3.8787    2.8180    0.0000 C   0  0  0  0  0  0  0  0  0  0  0  0
    4.5597    1.4815    0.0000 C   0  0  0  0  0  0  0  0  0  0  0  0
  1  2  1  0
  2  3  2  0
  3  4  1  0
  4  5  2  0
  5  6  1  0
  6  7  2  0
  7  8  1  0
  8  9  2  0
  9 10  1  0
 10 11  2  0
 11 12  1  0
 12 13  2  0
 13 14  1  0
 14 15  2  0
 15 16  1  0
 16 17  2  0
 17 18  1  0
 18 19  2  0
 19 20  1  0
 20 21  2  0
 21  2  1  0
M  END
>  <Title>  (722) 
idABBTgen8

$$$$

     RDKit          2D

 37 42  0  0  0  0  0  0  0  0999 V2000
    3.7500    1.2990    0.0000 C   0  0  0  0  0  0  0  0  0  0  0  0
    3.0000    0.0000    0.0000 O   0  0  0  0  0  0  0  0  0  0  0  0
    1.5000    0.0000    0.0000 C   0  0  0  0  0  0  0  0  0  0  0  0
    0.7500    1.2990    0.0000 C   0  0  0  0  0  0  0  0  0  0  0  0
   -0.7500    1.2990    0.0000 C   0  0  0  0  0  0  0  0  0  0  0  0
   -1.5000    0.0000    0.0000 C   0  0  0  0  0  0  0  0  0  0  0  0
   -3.0000    0.0000    0.0000 C   0  0  0  0  0  0  0  0  0  0  0  0
   -3.8817   -1.2135    0.0000 N   0  0  0  0  0  0  0  0  0  0  0  0
   -5.3083   -0.7500    0.0000 N   0  0  0  0  0  0  0  0  0  0  0  0
   -5.3083    0.7500    0.0000 N   0  0  0  0  0  0  0  0  0  0  0  0
   -3.8817    1.2135    0.0000 N   0  0  0  0  0  0  0  0  0  0  0  0
   -3.4182    2.6401    0.0000 C   0  0  0  0  0  0  0  0  0  0  0  0
   -1.9509    2.9520    0.0000 C   0  0  0  0  0  0  0  0  0  0  0  0
   -1.4874    4.3786    0.0000 C   0  0  0  0  0  0  0  0  0  0  0  0
   -2.4911    5.4933    0.0000 C   0  0  0  0  0  0  0  0  0  0  0  0
   -3.9583    5.1814    0.0000 C   0  0  0  0  0  0  0  0  0  0  0  0
   -4.4218    3.7548    0.0000 C   0  0  0  0  0  0  0  0  0  0  0  0
   -5.8891    3.4430    0.0000 C   0  0  0  0  0  0  0  0  0  0  0  0
   -6.4992    2.0726    0.0000 C   0  0  0  0  0  0  0  0  0  0  0  0
   -7.9910    2.2294    0.0000 C   0  0  0  0  0  0  0  0  0  0  0  0
   -8.3028    3.6967    0.0000 C   0  0  0  0  0  0  0  0  0  0  0  0
   -9.6731    4.3068    0.0000 C   0  0  0  0  0  0  0  0  0  0  0  0
  -10.9722    3.5568    0.0000 N   0  0  0  0  0  0  0  0  0  0  0  0
  -12.0869    4.5605    0.0000 N   0  0  0  0  0  0  0  0  0  0  0  0
  -11.4768    5.9308    0.0000 N   0  0  0  0  0  0  0  0  0  0  0  0
   -9.9850    5.7740    0.0000 N   0  0  0  0  0  0  0  0  0  0  0  0
   -8.9813    6.8887    0.0000 C   0  0  0  0  0  0  0  0  0  0  0  0
   -7.5141    6.5768    0.0000 C   0  0  0  0  0  0  0  0  0  0  0  0
   -6.5104    7.6915    0.0000 C   0  0  0  0  0  0  0  0  0  0  0  0
   -6.9739    9.1181    0.0000 C   0  0  0  0  0  0  0  0  0  0  0  0
   -8.4411    9.4300    0.0000 C   0  0  0  0  0  0  0  0  0  0  0  0
   -9.4448    8.3153    0.0000 C   0  0  0  0  0  0  0  0  0  0  0  0
   -7.0038    4.4467    0.0000 C   0  0  0  0  0  0  0  0  0  0  0  0
   -6.8470    5.9384    0.0000 O   0  0  0  0  0  0  0  0  0  0  0  0
   -0.7500   -1.2990    0.0000 C   0  0  0  0  0  0  0  0  0  0  0  0
   -1.5000   -2.5981    0.0000 O   0  0  0  0  0  0  0  0  0  0  0  0
    0.7500   -1.2990    0.0000 N   0  0  0  0  0  0  0  0  0  0  0  0
  1  2  1  0
  2  3  1  0
  3  4  2  0
  4  5  1  0
  5  6  2  0
  6  7  1  0
  7  8  2  0
  8  9  1  0
  9 10  2  0
 10 11  1  0
 11 12  1  0
 12 13  1  0
 13 14  1  0
 14 15  1  0
 15 16  1  0
 16 17  1  0
 17 18  1  0
 18 19  2  0
 19 20  1  0
 20 21  2  0
 21 22  1  0
 22 23  2  0
 23 24  1  0
 24 25  2  0
 25 26  1  0
 26 27  1  0
 27 28  2  0
 28 29  1  0
 29 30  2  0
 30 31  1  0
 31 32  2  0
 21 33  1  0
 33 34  2  0
  6 35  1  0
 35 36  2  0
 35 37  1  0
 37  3  1  0
 11  7  1  0
 17 12  1  0
 33 18  1  0
 26 22  1  0
 32 27  1  0
M  END
>  <Title>  (723) 
idABBUgen8

$$$$

     RDKit          2D

 47 53  0  0  0  0  0  0  0  0999 V2000
   -1.7817   10.1589    0.0000 C   0  0  0  0  0  0  0  0  0  0  0  0
   -1.3611    8.7191    0.0000 O   0  0  0  0  0  0  0  0  0  0  0  0
   -2.3977    7.6349    0.0000 C   0  0  0  0  0  0  0  0  0  0  0  0
   -1.8706    6.2306    0.0000 C   0  0  0  0  0  0  0  0  0  0  0  0
   -2.6399    4.9429    0.0000 C   0  0  0  0  0  0  0  0  0  0  0  0
   -4.1264    4.7416    0.0000 C   0  0  0  0  0  0  0  0  0  0  0  0
   -4.5899    3.3150    0.0000 C   0  0  0  0  0  0  0  0  0  0  0  0
   -6.0165    2.8515    0.0000 N   0  0  0  0  0  0  0  0  0  0  0  0
   -6.0165    1.3515    0.0000 N   0  0  0  0  0  0  0  0  0  0  0  0
   -4.5899    0.8879    0.0000 N   0  0  0  0  0  0  0  0  0  0  0  0
   -3.7082    2.1015    0.0000 N   0  0  0  0  0  0  0  0  0  0  0  0
   -2.2082    2.1015    0.0000 C   0  0  0  0  0  0  0  0  0  0  0  0
   -1.5574    3.4529    0.0000 C   0  0  0  0  0  0  0  0  0  0  0  0
   -0.0950    3.7867    0.0000 C   0  0  0  0  0  0  0  0  0  0  0  0
    1.0777    2.8515    0.0000 C   0  0  0  0  0  0  0  0  0  0  0  0
    2.4292    3.5023    0.0000 C   0  0  0  0  0  0  0  0  0  0  0  0
    2.5413    4.9981    0.0000 O   0  0  0  0  0  0  0  0  0  0  0  0
    3.6686    2.6573    0.0000 N   0  0  0  0  0  0  0  0  0  0  0  0
    5.0200    3.3081    0.0000 C   0  0  0  0  0  0  0  0  0  0  0  0
    5.2878    4.7840    0.0000 N   0  0  0  0  0  0  0  0  0  0  0  0
    6.7743    4.9854    0.0000 N   0  0  0  0  0  0  0  0  0  0  0  0
    7.4251    3.6339    0.0000 N   0  0  0  0  0  0  0  0  0  0  0  0
    6.3409    2.5973    0.0000 N   0  0  0  0  0  0  0  0  0  0  0  0
    6.5423    1.1109    0.0000 C   0  0  0  0  0  0  0  0  0  0  0  0
    5.3556    0.1933    0.0000 C   0  0  0  0  0  0  0  0  0  0  0  0
    5.5570   -1.2931    0.0000 C   0  0  0  0  0  0  0  0  0  0  0  0
    6.9450   -1.8620    0.0000 C   0  0  0  0  0  0  0  0  0  0  0  0
    8.1316   -0.9444    0.0000 C   0  0  0  0  0  0  0  0  0  0  0  0
    7.9302    0.5421    0.0000 C   0  0  0  0  0  0  0  0  0  0  0  0
    1.0777    1.3515    0.0000 C   0  0  0  0  0  0  0  0  0  0  0  0
    1.7286    0.0000    0.0000 C   0  0  0  0  0  0  0  0  0  0  0  0
    1.0777   -1.3515    0.0000 C   0  0  0  0  0  0  0  0  0  0  0  0
   -0.3846   -1.6852    0.0000 C   0  0  0  0  0  0  0  0  0  0  0  0
   -0.7184   -3.1476    0.0000 C   0  0  0  0  0  0  0  0  0  0  0  0
    0.3812   -4.1679    0.0000 C   0  0  0  0  0  0  0  0  0  0  0  0
    0.0474   -5.6303    0.0000 C   0  0  0  0  0  0  0  0  0  0  0  0
   -1.3860   -6.0724    0.0000 C   0  0  0  0  0  0  0  0  0  0  0  0
   -2.4856   -5.0522    0.0000 C   0  0  0  0  0  0  0  0  0  0  0  0
   -2.1518   -3.5898    0.0000 C   0  0  0  0  0  0  0  0  0  0  0  0
   -1.5574   -0.7500    0.0000 C   0  0  0  0  0  0  0  0  0  0  0  0
   -1.5574    0.7500    0.0000 C   0  0  0  0  0  0  0  0  0  0  0  0
   -0.3846    1.6852    0.0000 C   0  0  0  0  0  0  0  0  0  0  0  0
   -0.7184    3.1476    0.0000 O   0  0  0  0  0  0  0  0  0  0  0  0
   -5.2106    5.7782    0.0000 N   0  0  0  0  0  0  0  0  0  0  0  0
   -5.0761    7.2721    0.0000 C   0  0  0  0  0  0  0  0  0  0  0  0
   -6.3638    8.0415    0.0000 O   0  0  0  0  0  0  0  0  0  0  0  0
   -3.8242    8.0985    0.0000 C   0  0  0  0  0  0  0  0  0  0  0  0
  1  2  1  0
  2  3  1  0
  3  4  2  0
  4  5  1  0
  5  6  2  0
  6  7  1  0
  7  8  2  0
  8  9  1  0
  9 10  2  0
 10 11  1  0
 11 12  1  0
 12 13  2  0
 13 14  1  0
 14 15  2  0
 15 16  1  0
 16 17  2  0
 16 18  1  0
 18 19  1  0
 19 20  2  0
 20 21  1  0
 21 22  2  0
 22 23  1  0
 23 24  1  0
 24 25  2  0
 25 26  1  0
 26 27  2  0
 27 28  1  0
 28 29  2  0
 15 30  1  0
 30 31  2  0
 31 32  1  0
 32 33  2  0
 33 34  1  0
 34 35  2  0
 35 36  1  0
 36 37  2  0
 37 38  1  0
 38 39  2  0
 33 40  1  0
 40 41  2  0
 41 42  1  0
 42 43  2  0
  6 44  1  0
 44 45  1  0
 45 46  2  0
 45 47  1  0
 47  3  1  0
 11  7  1  0
 41 12  1  0
 23 19  1  0
 29 24  1  0
 42 30  1  0
 39 34  1  0
M  END
>  <Title>  (724) 
idABBVgen8

$$$$

     RDKit          2D

 50 56  0  0  0  0  0  0  0  0999 V2000
   -3.6368   -4.0009    0.0000 C   0  0  0  0  0  0  0  0  0  0  0  0
   -2.1595   -3.7404    0.0000 C   0  0  0  0  0  0  0  0  0  0  0  0
   -1.4095   -5.0395    0.0000 C   0  0  0  0  0  0  0  0  0  0  0  0
   -0.0000   -5.5525    0.0000 C   0  0  0  0  0  0  0  0  0  0  0  0
    1.4095   -5.0395    0.0000 C   0  0  0  0  0  0  0  0  0  0  0  0
    2.1595   -3.7404    0.0000 C   0  0  0  0  0  0  0  0  0  0  0  0
    1.8991   -2.2632    0.0000 C   0  0  0  0  0  0  0  0  0  0  0  0
    3.1981   -1.5132    0.0000 C   0  0  0  0  0  0  0  0  0  0  0  0
    3.1981   -0.0132    0.0000 O   0  0  0  0  0  0  0  0  0  0  0  0
    4.4971   -2.2632    0.0000 N   0  0  0  0  0  0  0  0  0  0  0  0
    5.7962   -1.5132    0.0000 C   0  0  0  0  0  0  0  0  0  0  0  0
    5.9530   -0.0214    0.0000 N   0  0  0  0  0  0  0  0  0  0  0  0
    7.4202    0.2904    0.0000 N   0  0  0  0  0  0  0  0  0  0  0  0
    8.1702   -1.0086    0.0000 N   0  0  0  0  0  0  0  0  0  0  0  0
    7.1665   -2.1233    0.0000 N   0  0  0  0  0  0  0  0  0  0  0  0
    7.4784   -3.5905    0.0000 C   0  0  0  0  0  0  0  0  0  0  0  0
    8.8487   -4.2007    0.0000 C   0  0  0  0  0  0  0  0  0  0  0  0
    8.6919   -5.6924    0.0000 C   0  0  0  0  0  0  0  0  0  0  0  0
    7.2247   -6.0043    0.0000 C   0  0  0  0  0  0  0  0  0  0  0  0
    6.6146   -7.3746    0.0000 N   0  0  0  0  0  0  0  0  0  0  0  0
    5.1228   -7.5314    0.0000 C   0  0  0  0  0  0  0  0  0  0  0  0
    4.1191   -6.4167    0.0000 N   0  0  0  0  0  0  0  0  0  0  0  0
    2.7488   -7.0268    0.0000 N   0  0  0  0  0  0  0  0  0  0  0  0
    2.9056   -8.5186    0.0000 N   0  0  0  0  0  0  0  0  0  0  0  0
    4.3728   -8.8305    0.0000 N   0  0  0  0  0  0  0  0  0  0  0  0
    4.9829  -10.2008    0.0000 C   0  0  0  0  0  0  0  0  0  0  0  0
    6.4747  -10.3576    0.0000 C   0  0  0  0  0  0  0  0  0  0  0  0
    7.0848  -11.7279    0.0000 C   0  0  0  0  0  0  0  0  0  0  0  0
    6.2031  -12.9414    0.0000 C   0  0  0  0  0  0  0  0  0  0  0  0
    4.7113  -12.7846    0.0000 C   0  0  0  0  0  0  0  0  0  0  0  0
    4.1012  -11.4143    0.0000 C   0  0  0  0  0  0  0  0  0  0  0  0
    6.4747   -4.7053    0.0000 C   0  0  0  0  0  0  0  0  0  0  0  0
    4.9829   -4.5485    0.0000 O   0  0  0  0  0  0  0  0  0  0  0  0
    0.7500   -1.2990    0.0000 C   0  0  0  0  0  0  0  0  0  0  0  0
    1.5000    0.0000    0.0000 C   0  0  0  0  0  0  0  0  0  0  0  0
    0.7500    1.2990    0.0000 C   0  0  0  0  0  0  0  0  0  0  0  0
   -0.7500    1.2990    0.0000 C   0  0  0  0  0  0  0  0  0  0  0  0
   -1.5000    2.5981    0.0000 C   0  0  0  0  0  0  0  0  0  0  0  0
   -3.0000    2.5981    0.0000 O   0  0  0  0  0  0  0  0  0  0  0  0
   -0.7500    3.8971    0.0000 N   0  0  0  0  0  0  0  0  0  0  0  0
   -1.5000    5.1962    0.0000 C   0  0  0  0  0  0  0  0  0  0  0  0
   -0.7500    6.4952    0.0000 C   0  0  0  0  0  0  0  0  0  0  0  0
   -1.5000    7.7942    0.0000 C   0  0  0  0  0  0  0  0  0  0  0  0
   -3.0000    7.7942    0.0000 C   0  0  0  0  0  0  0  0  0  0  0  0
   -3.7500    6.4952    0.0000 C   0  0  0  0  0  0  0  0  0  0  0  0
   -3.0000    5.1962    0.0000 C   0  0  0  0  0  0  0  0  0  0  0  0
   -1.5000    0.0000    0.0000 C   0  0  0  0  0  0  0  0  0  0  0  0
   -0.7500   -1.2990    0.0000 C   0  0  0  0  0  0  0  0  0  0  0  0
   -1.8991   -2.2632    0.0000 C   0  0  0  0  0  0  0  0  0  0  0  0
   -3.1981   -1.5132    0.0000 O   0  0  0  0  0  0  0  0  0  0  0  0
  1  2  1  0
  2  3  2  0
  3  4  1  0
  4  5  2  0
  5  6  1  0
  6  7  1  0
  7  8  1  0
  8  9  2  0
  8 10  1  0
 10 11  1  0
 11 12  2  0
 12 13  1  0
 13 14  2  0
 14 15  1  0
 15 16  1  0
 16 17  2  0
 17 18  1  0
 18 19  2  0
 19 20  1  0
 20 21  1  0
 21 22  2  0
 22 23  1  0
 23 24  2  0
 24 25  1  0
 25 26  1  0
 26 27  2  0
 27 28  1  0
 28 29  2  0
 29 30  1  0
 30 31  2  0
 19 32  1  0
 32 33  2  0
  7 34  1  0
 34 35  2  0
 35 36  1  0
 36 37  2  0
 37 38  1  0
 38 39  2  0
 38 40  1  0
 40 41  1  0
 41 42  2  0
 42 43  1  0
 43 44  2  0
 44 45  1  0
 45 46  2  0
 37 47  1  0
 47 48  2  0
 48 49  1  0
 49 50  2  0
 49  2  1  0
 15 11  1  0
 32 16  1  0
 48 34  1  0
 25 21  1  0
 31 26  1  0
 46 41  1  0
M  END
>  <Title>  (725) 
idABBWgen8

$$$$

     RDKit          2D

 50 55  0  0  0  0  0  0  0  0999 V2000
   10.4367    9.9087    0.0000 C   0  0  0  0  0  0  0  0  0  0  0  0
    9.0740    9.2818    0.0000 O   0  0  0  0  0  0  0  0  0  0  0  0
    8.9356    7.7882    0.0000 C   0  0  0  0  0  0  0  0  0  0  0  0
    7.4420    7.6498    0.0000 C   0  0  0  0  0  0  0  0  0  0  0  0
    6.0992    6.9812    0.0000 C   0  0  0  0  0  0  0  0  0  0  0  0
    5.0887    5.8727    0.0000 C   0  0  0  0  0  0  0  0  0  0  0  0
    5.8996    4.6108    0.0000 N   0  0  0  0  0  0  0  0  0  0  0  0
    5.8996    3.1108    0.0000 N   0  0  0  0  0  0  0  0  0  0  0  0
    5.0887    1.8489    0.0000 N   0  0  0  0  0  0  0  0  0  0  0  0
    3.7242    1.2258    0.0000 C   0  0  0  0  0  0  0  0  0  0  0  0
    2.2395    1.4392    0.0000 C   0  0  0  0  0  0  0  0  0  0  0  0
    2.6621    0.0000    0.0000 C   0  0  0  0  0  0  0  0  0  0  0  0
    2.2395   -1.4392    0.0000 C   0  0  0  0  0  0  0  0  0  0  0  0
    1.1059   -2.4215    0.0000 C   0  0  0  0  0  0  0  0  0  0  0  0
   -0.3789   -2.6350    0.0000 C   0  0  0  0  0  0  0  0  0  0  0  0
   -1.7433   -2.0119    0.0000 C   0  0  0  0  0  0  0  0  0  0  0  0
   -2.5543   -0.7500    0.0000 C   0  0  0  0  0  0  0  0  0  0  0  0
   -2.5543    0.7500    0.0000 C   0  0  0  0  0  0  0  0  0  0  0  0
   -1.7433    2.0119    0.0000 C   0  0  0  0  0  0  0  0  0  0  0  0
   -0.3789    2.6350    0.0000 C   0  0  0  0  0  0  0  0  0  0  0  0
    1.1059    2.4215    0.0000 C   0  0  0  0  0  0  0  0  0  0  0  0
    0.6833    3.8608    0.0000 C   0  0  0  0  0  0  0  0  0  0  0  0
    1.1059    5.3000    0.0000 C   0  0  0  0  0  0  0  0  0  0  0  0
    2.2395    6.2823    0.0000 C   0  0  0  0  0  0  0  0  0  0  0  0
    3.7242    6.4958    0.0000 C   0  0  0  0  0  0  0  0  0  0  0  0
    3.9377    7.9805    0.0000 O   0  0  0  0  0  0  0  0  0  0  0  0
    6.0992    0.4667    0.0000 C   0  0  0  0  0  0  0  0  0  0  0  0
    5.1953   -0.7303    0.0000 O   0  0  0  0  0  0  0  0  0  0  0  0
    7.4420   -0.2019    0.0000 C   0  0  0  0  0  0  0  0  0  0  0  0
    8.9356   -0.3403    0.0000 C   0  0  0  0  0  0  0  0  0  0  0  0
    8.8801   -1.8393    0.0000 N   0  0  0  0  0  0  0  0  0  0  0  0
   10.2886   -2.3552    0.0000 N   0  0  0  0  0  0  0  0  0  0  0  0
   11.2145   -1.1751    0.0000 N   0  0  0  0  0  0  0  0  0  0  0  0
   10.3783    0.0702    0.0000 N   0  0  0  0  0  0  0  0  0  0  0  0
   11.5753    0.9742    0.0000 C   0  0  0  0  0  0  0  0  0  0  0  0
   12.3650    2.2495    0.0000 C   0  0  0  0  0  0  0  0  0  0  0  0
   12.6406    3.7239    0.0000 C   0  0  0  0  0  0  0  0  0  0  0  0
   12.3650    5.1984    0.0000 C   0  0  0  0  0  0  0  0  0  0  0  0
   13.8649    5.1830    0.0000 C   0  0  0  0  0  0  0  0  0  0  0  0
   15.0040    4.2071    0.0000 N   0  0  0  0  0  0  0  0  0  0  0  0
   15.2493    2.7273    0.0000 N   0  0  0  0  0  0  0  0  0  0  0  0
   14.4860    1.4360    0.0000 N   0  0  0  0  0  0  0  0  0  0  0  0
   13.0713    0.9375    0.0000 N   0  0  0  0  0  0  0  0  0  0  0  0
   13.3459    2.3841    0.0000 C   0  0  0  0  0  0  0  0  0  0  0  0
   13.3680    2.3398    0.0000 C   0  0  0  0  0  0  0  0  0  0  0  0
   13.6350    3.7682    0.0000 C   0  0  0  0  0  0  0  0  0  0  0  0
   17.4855    3.5942    0.0000 C   0  0  0  0  0  0  0  0  0  0  0  0
   13.5984    3.7348    0.0000 C   0  0  0  0  0  0  0  0  0  0  0  0
   11.5753    6.4737    0.0000 C   0  0  0  0  0  0  0  0  0  0  0  0
   10.3783    7.3777    0.0000 C   0  0  0  0  0  0  0  0  0  0  0  0
  1  2  1  0
  2  3  1  0
  3  4  2  0
  4  5  1  0
  5  6  2  0
  6  7  1  0
  7  8  2  0
  8  9  1  0
  9 10  1  0
 10 11  2  0
 11 12  1  0
 12 13  2  0
 13 14  1  0
 14 15  2  0
 15 16  1  0
 16 17  2  0
 17 18  1  0
 18 19  2  0
 19 20  1  0
 20 21  2  0
 21 22  1  0
 22 23  2  0
 23 24  1  0
 24 25  2  0
 25 26  1  0
  9 27  1  0
 27 28  2  0
 27 29  1  0
 29 30  1  0
 30 31  2  0
 31 32  1  0
 32 33  2  0
 33 34  1  0
 34 35  1  0
 35 36  2  0
 36 37  1  0
 37 38  2  0
 38 39  1  0
 39 40  2  0
 40 41  1  0
 41 42  2  0
 42 43  1  0
 43 44  1  0
 44 45  1  0
 45 46  1  0
 46 47  1  0
 46 48  2  0
 38 49  1  0
 49 50  2  0
 50  3  1  0
 25  6  1  0
 34 30  1  0
 43 35  1  0
 21 11  1  0
 48 39  1  0
M  END
>  <Title>  (726) 
idABBXgen8

$$$$

     RDKit          2D

 14 14  0  0  0  0  0  0  0  0999 V2000
    4.6339    0.0000    0.0000 C   0  0  0  0  0  0  0  0  0  0  0  0
    3.1339    0.0000    0.0000 C   0  0  0  0  0  0  0  0  0  0  0  0
    2.7750    1.4564    0.0000 C   0  0  0  0  0  0  0  0  0  0  0  0
    1.7803    2.5792    0.0000 C   0  0  0  0  0  0  0  0  0  0  0  0
    0.3778    3.1111    0.0000 C   0  0  0  0  0  0  0  0  0  0  0  0
   -1.1113    2.9303    0.0000 C   0  0  0  0  0  0  0  0  0  0  0  0
   -2.3458    2.0782    0.0000 C   0  0  0  0  0  0  0  0  0  0  0  0
   -3.0429    0.7500    0.0000 C   0  0  0  0  0  0  0  0  0  0  0  0
   -3.0429   -0.7500    0.0000 C   0  0  0  0  0  0  0  0  0  0  0  0
   -2.3458   -2.0782    0.0000 C   0  0  0  0  0  0  0  0  0  0  0  0
   -1.1113   -2.9303    0.0000 C   0  0  0  0  0  0  0  0  0  0  0  0
    0.3778   -3.1111    0.0000 C   0  0  0  0  0  0  0  0  0  0  0  0
    1.7803   -2.5792    0.0000 C   0  0  0  0  0  0  0  0  0  0  0  0
    2.7750   -1.4564    0.0000 C   0  0  0  0  0  0  0  0  0  0  0  0
  1  2  1  0
  2  3  1  0
  3  4  2  0
  4  5  1  0
  5  6  2  0
  6  7  1  0
  7  8  2  0
  8  9  1  0
  9 10  2  0
 10 11  1  0
 11 12  2  0
 12 13  1  0
 13 14  1  0
 14  2  1  0
M  END
>  <Title>  (727) 
idABBYgen8

$$$$

     RDKit          2D

 24 26  0  0  0  0  0  0  0  0999 V2000
    3.0000    0.0000    0.0000 C   0  0  0  0  0  0  0  0  0  0  0  0
    1.5000    0.0000    0.0000 C   0  0  0  0  0  0  0  0  0  0  0  0
    0.7500   -1.2990    0.0000 C   0  0  0  0  0  0  0  0  0  0  0  0
   -0.7500   -1.2990    0.0000 C   0  0  0  0  0  0  0  0  0  0  0  0
   -1.5000    0.0000    0.0000 C   0  0  0  0  0  0  0  0  0  0  0  0
   -3.0000    0.0000    0.0000 C   0  0  0  0  0  0  0  0  0  0  0  0
   -3.7500   -1.2990    0.0000 O   0  0  0  0  0  0  0  0  0  0  0  0
   -3.7500    1.2990    0.0000 N   0  0  0  0  0  0  0  0  0  0  0  0
   -5.2500    1.2990    0.0000 C   0  0  0  0  0  0  0  0  0  0  0  0
   -6.1317    0.0855    0.0000 N   0  0  0  0  0  0  0  0  0  0  0  0
   -7.5583    0.5490    0.0000 N   0  0  0  0  0  0  0  0  0  0  0  0
   -7.5583    2.0490    0.0000 N   0  0  0  0  0  0  0  0  0  0  0  0
   -6.1317    2.5126    0.0000 N   0  0  0  0  0  0  0  0  0  0  0  0
   -5.6682    3.9391    0.0000 C   0  0  0  0  0  0  0  0  0  0  0  0
   -4.2009    4.2510    0.0000 C   0  0  0  0  0  0  0  0  0  0  0  0
   -3.7374    5.6776    0.0000 C   0  0  0  0  0  0  0  0  0  0  0  0
   -4.7411    6.7923    0.0000 C   0  0  0  0  0  0  0  0  0  0  0  0
   -4.2776    8.2189    0.0000 C   0  0  0  0  0  0  0  0  0  0  0  0
   -6.2083    6.4805    0.0000 C   0  0  0  0  0  0  0  0  0  0  0  0
   -7.2120    7.5952    0.0000 O   0  0  0  0  0  0  0  0  0  0  0  0
   -6.6718    5.0539    0.0000 N   0  0  0  0  0  0  0  0  0  0  0  0
   -0.7500    1.2990    0.0000 C   0  0  0  0  0  0  0  0  0  0  0  0
   -1.5000    2.5981    0.0000 O   0  0  0  0  0  0  0  0  0  0  0  0
    0.7500    1.2990    0.0000 N   0  0  0  0  0  0  0  0  0  0  0  0
  1  2  1  0
  2  3  2  0
  3  4  1  0
  4  5  2  0
  5  6  1  0
  6  7  2  0
  6  8  1  0
  8  9  1  0
  9 10  2  0
 10 11  1  0
 11 12  2  0
 12 13  1  0
 13 14  1  0
 14 15  2  0
 15 16  1  0
 16 17  2  0
 17 18  1  0
 17 19  1  0
 19 20  2  0
 19 21  1  0
  5 22  1  0
 22 23  2  0
 22 24  1  0
 24  2  1  0
 13  9  1  0
 21 14  1  0
M  END
>  <Title>  (728) 
idABBZgen8

$$$$

     RDKit          2D

 29 32  0  0  0  0  0  0  0  0999 V2000
   10.6702   -0.3846    0.0000 C   0  0  0  0  0  0  0  0  0  0  0  0
    9.6665   -1.4993    0.0000 C   0  0  0  0  0  0  0  0  0  0  0  0
    9.9783   -2.9665    0.0000 C   0  0  0  0  0  0  0  0  0  0  0  0
    8.6793   -3.7165    0.0000 C   0  0  0  0  0  0  0  0  0  0  0  0
    7.5646   -2.7128    0.0000 C   0  0  0  0  0  0  0  0  0  0  0  0
    6.0974   -3.0247    0.0000 C   0  0  0  0  0  0  0  0  0  0  0  0
    4.9826   -2.0210    0.0000 C   0  0  0  0  0  0  0  0  0  0  0  0
    3.6836   -2.7710    0.0000 C   0  0  0  0  0  0  0  0  0  0  0  0
    3.9955   -4.2382    0.0000 C   0  0  0  0  0  0  0  0  0  0  0  0
    2.9918   -5.3529    0.0000 N   0  0  0  0  0  0  0  0  0  0  0  0
    3.3037   -6.8202    0.0000 N   0  0  0  0  0  0  0  0  0  0  0  0
    2.0046   -7.5702    0.0000 N   0  0  0  0  0  0  0  0  0  0  0  0
    0.8899   -6.5665    0.0000 N   0  0  0  0  0  0  0  0  0  0  0  0
    1.5000   -5.1962    0.0000 C   0  0  0  0  0  0  0  0  0  0  0  0
    0.7500   -3.8971    0.0000 N   0  0  0  0  0  0  0  0  0  0  0  0
   -0.7500   -3.8971    0.0000 C   0  0  0  0  0  0  0  0  0  0  0  0
   -1.5000   -5.1962    0.0000 O   0  0  0  0  0  0  0  0  0  0  0  0
   -1.5000   -2.5981    0.0000 C   0  0  0  0  0  0  0  0  0  0  0  0
   -3.0000   -2.5981    0.0000 C   0  0  0  0  0  0  0  0  0  0  0  0
   -3.7500   -1.2990    0.0000 C   0  0  0  0  0  0  0  0  0  0  0  0
   -3.0000   -0.0000    0.0000 C   0  0  0  0  0  0  0  0  0  0  0  0
   -3.7500    1.2990    0.0000 C   0  0  0  0  0  0  0  0  0  0  0  0
   -1.5000   -0.0000    0.0000 N   0  0  0  0  0  0  0  0  0  0  0  0
   -0.7500   -1.2990    0.0000 C   0  0  0  0  0  0  0  0  0  0  0  0
    0.7500   -1.2990    0.0000 O   0  0  0  0  0  0  0  0  0  0  0  0
    5.4873   -4.3950    0.0000 C   0  0  0  0  0  0  0  0  0  0  0  0
    6.2373   -5.6941    0.0000 O   0  0  0  0  0  0  0  0  0  0  0  0
    8.1747   -1.3425    0.0000 C   0  0  0  0  0  0  0  0  0  0  0  0
    7.4247   -0.0435    0.0000 O   0  0  0  0  0  0  0  0  0  0  0  0
  1  2  1  0
  2  3  2  0
  3  4  1  0
  4  5  2  0
  5  6  1  0
  6  7  2  0
  7  8  1  0
  8  9  2  0
  9 10  1  0
 10 11  1  0
 11 12  2  0
 12 13  1  0
 13 14  2  0
 14 15  1  0
 15 16  1  0
 16 17  2  0
 16 18  1  0
 18 19  2  0
 19 20  1  0
 20 21  2  0
 21 22  1  0
 21 23  1  0
 23 24  1  0
 24 25  2  0
  9 26  1  0
 26 27  2  0
  5 28  1  0
 28 29  2  0
 28  2  1  0
 26  6  1  0
 14 10  1  0
 24 18  1  0
M  END
>  <Title>  (729) 
idABCAgen8

$$$$

     RDKit          2D

 45 50  0  0  0  0  0  0  0  0999 V2000
    3.0000    0.0000    0.0000 C   0  0  0  0  0  0  0  0  0  0  0  0
    1.5000    0.0000    0.0000 C   0  0  0  0  0  0  0  0  0  0  0  0
    0.7500   -1.2990    0.0000 C   0  0  0  0  0  0  0  0  0  0  0  0
   -0.7500   -1.2990    0.0000 C   0  0  0  0  0  0  0  0  0  0  0  0
   -1.5000    0.0000    0.0000 C   0  0  0  0  0  0  0  0  0  0  0  0
   -3.0000    0.0000    0.0000 C   0  0  0  0  0  0  0  0  0  0  0  0
   -3.7500   -1.2990    0.0000 O   0  0  0  0  0  0  0  0  0  0  0  0
   -3.7500    1.2990    0.0000 N   0  0  0  0  0  0  0  0  0  0  0  0
   -5.2500    1.2990    0.0000 C   0  0  0  0  0  0  0  0  0  0  0  0
   -6.1317    0.0855    0.0000 N   0  0  0  0  0  0  0  0  0  0  0  0
   -7.5583    0.5490    0.0000 N   0  0  0  0  0  0  0  0  0  0  0  0
   -7.5583    2.0490    0.0000 N   0  0  0  0  0  0  0  0  0  0  0  0
   -6.1317    2.5126    0.0000 N   0  0  0  0  0  0  0  0  0  0  0  0
   -5.6682    3.9391    0.0000 C   0  0  0  0  0  0  0  0  0  0  0  0
   -4.2009    4.2510    0.0000 C   0  0  0  0  0  0  0  0  0  0  0  0
   -3.7374    5.6776    0.0000 C   0  0  0  0  0  0  0  0  0  0  0  0
   -4.7411    6.7923    0.0000 C   0  0  0  0  0  0  0  0  0  0  0  0
   -4.2776    8.2189    0.0000 C   0  0  0  0  0  0  0  0  0  0  0  0
   -2.8104    8.5308    0.0000 C   0  0  0  0  0  0  0  0  0  0  0  0
   -2.3468    9.9574    0.0000 C   0  0  0  0  0  0  0  0  0  0  0  0
   -3.3505   11.0721    0.0000 C   0  0  0  0  0  0  0  0  0  0  0  0
   -4.8177   10.7602    0.0000 C   0  0  0  0  0  0  0  0  0  0  0  0
   -5.2813    9.3336    0.0000 C   0  0  0  0  0  0  0  0  0  0  0  0
   -6.7485    9.0218    0.0000 C   0  0  0  0  0  0  0  0  0  0  0  0
   -7.7522   10.1365    0.0000 C   0  0  0  0  0  0  0  0  0  0  0  0
   -9.2194    9.8246    0.0000 C   0  0  0  0  0  0  0  0  0  0  0  0
   -9.6829    8.3980    0.0000 C   0  0  0  0  0  0  0  0  0  0  0  0
   -8.6792    7.2833    0.0000 C   0  0  0  0  0  0  0  0  0  0  0  0
   -7.2120    7.5952    0.0000 C   0  0  0  0  0  0  0  0  0  0  0  0
   -6.2083    6.4805    0.0000 C   0  0  0  0  0  0  0  0  0  0  0  0
   -6.6718    5.0539    0.0000 C   0  0  0  0  0  0  0  0  0  0  0  0
   -8.1391    4.7420    0.0000 C   0  0  0  0  0  0  0  0  0  0  0  0
   -9.1428    5.8567    0.0000 C   0  0  0  0  0  0  0  0  0  0  0  0
  -10.6100    5.5448    0.0000 C   0  0  0  0  0  0  0  0  0  0  0  0
  -11.0735    4.1183    0.0000 C   0  0  0  0  0  0  0  0  0  0  0  0
  -12.5407    3.8064    0.0000 C   0  0  0  0  0  0  0  0  0  0  0  0
  -13.0043    2.3798    0.0000 O   0  0  0  0  0  0  0  0  0  0  0  0
  -13.5444    4.9211    0.0000 N   0  0  0  0  0  0  0  0  0  0  0  0
  -15.0117    4.6092    0.0000 O   0  0  0  0  0  0  0  0  0  0  0  0
  -10.0698    3.0035    0.0000 N   0  0  0  0  0  0  0  0  0  0  0  0
   -8.6026    3.3154    0.0000 C   0  0  0  0  0  0  0  0  0  0  0  0
   -8.2284    2.6115    0.0000 O   0  0  0  0  0  0  0  0  0  0  0  0
   -0.7500    1.2990    0.0000 C   0  0  0  0  0  0  0  0  0  0  0  0
   -1.5000    2.5981    0.0000 O   0  0  0  0  0  0  0  0  0  0  0  0
    0.7500    1.2990    0.0000 N   0  0  0  0  0  0  0  0  0  0  0  0
  1  2  1  0
  2  3  2  0
  3  4  1  0
  4  5  2  0
  5  6  1  0
  6  7  2  0
  6  8  1  0
  8  9  1  0
  9 10  2  0
 10 11  1  0
 11 12  2  0
 12 13  1  0
 13 14  1  0
 14 15  2  0
 15 16  1  0
 16 17  2  0
 17 18  1  0
 18 19  2  0
 19 20  1  0
 20 21  2  0
 21 22  1  0
 22 23  2  0
 23 24  1  0
 24 25  2  0
 25 26  1  0
 26 27  2  0
 27 28  1  0
 28 29  2  0
 17 30  1  0
 30 31  2  0
 31 32  1  0
 32 33  2  0
 33 34  1  0
 34 35  2  0
 35 36  1  0
 36 37  2  0
 36 38  1  0
 38 39  1  0
 35 40  1  0
 40 41  1  0
 41 42  2  0
  5 43  1  0
 43 44  2  0
 43 45  1  0
 45  2  1  0
 13  9  1  0
 31 14  1  0
 41 32  1  0
 23 18  1  0
 29 24  1  0
M  END
>  <Title>  (730) 
idABCBgen8

$$$$

     RDKit          2D

 13 13  0  0  0  0  0  0  0  0999 V2000
    3.9271    0.0000    0.0000 C   0  0  0  0  0  0  0  0  0  0  0  0
    2.4271    0.0000    0.0000 C   0  0  0  0  0  0  0  0  0  0  0  0
    1.9635   -1.4266    0.0000 C   0  0  0  0  0  0  0  0  0  0  0  0
    0.7500   -2.3083    0.0000 C   0  0  0  0  0  0  0  0  0  0  0  0
   -0.7500   -2.3083    0.0000 C   0  0  0  0  0  0  0  0  0  0  0  0
   -1.9635   -1.4266    0.0000 C   0  0  0  0  0  0  0  0  0  0  0  0
   -2.4271    0.0000    0.0000 C   0  0  0  0  0  0  0  0  0  0  0  0
   -3.9271    0.0000    0.0000 F   0  0  0  0  0  0  0  0  0  0  0  0
   -1.9635    1.4266    0.0000 C   0  0  0  0  0  0  0  0  0  0  0  0
   -0.7500    2.3083    0.0000 C   0  0  0  0  0  0  0  0  0  0  0  0
    0.7500    2.3083    0.0000 C   0  0  0  0  0  0  0  0  0  0  0  0
    1.9635    1.4266    0.0000 C   0  0  0  0  0  0  0  0  0  0  0  0
    3.1771    2.3083    0.0000 O   0  0  0  0  0  0  0  0  0  0  0  0
  1  2  1  0
  2  3  2  0
  3  4  1  0
  4  5  2  0
  5  6  1  0
  6  7  2  0
  7  8  1  0
  7  9  1  0
  9 10  2  0
 10 11  1  0
 11 12  2  0
 12 13  1  0
 12  2  1  0
M  END
>  <Title>  (731) 
idABCCgen8

$$$$

     RDKit          2D

 27 27  0  0  0  0  0  0  0  0999 V2000
    9.0200   -1.2990    0.0000 C   0  0  0  0  0  0  0  0  0  0  0  0
    7.5200   -1.2990    0.0000 C   0  0  0  0  0  0  0  0  0  0  0  0
    6.7700   -2.5981    0.0000 O   0  0  0  0  0  0  0  0  0  0  0  0
    6.7700    0.0000    0.0000 O   0  0  0  0  0  0  0  0  0  0  0  0
    5.2700    0.0000    0.0000 C   0  0  0  0  0  0  0  0  0  0  0  0
    5.0565   -1.4847    0.0000 C   0  0  0  0  0  0  0  0  0  0  0  0
    4.4334   -2.8492    0.0000 C   0  0  0  0  0  0  0  0  0  0  0  0
    3.4511   -3.9828    0.0000 C   0  0  0  0  0  0  0  0  0  0  0  0
    2.1892   -4.7938    0.0000 C   0  0  0  0  0  0  0  0  0  0  0  0
    0.7500   -5.2164    0.0000 C   0  0  0  0  0  0  0  0  0  0  0  0
   -0.7500   -5.2164    0.0000 C   0  0  0  0  0  0  0  0  0  0  0  0
   -2.1892   -4.7938    0.0000 C   0  0  0  0  0  0  0  0  0  0  0  0
   -3.4511   -3.9828    0.0000 C   0  0  0  0  0  0  0  0  0  0  0  0
   -4.4334   -2.8492    0.0000 C   0  0  0  0  0  0  0  0  0  0  0  0
   -5.0565   -1.4847    0.0000 C   0  0  0  0  0  0  0  0  0  0  0  0
   -5.2700    0.0000    0.0000 C   0  0  0  0  0  0  0  0  0  0  0  0
   -5.0565    1.4847    0.0000 C   0  0  0  0  0  0  0  0  0  0  0  0
   -4.4334    2.8492    0.0000 C   0  0  0  0  0  0  0  0  0  0  0  0
   -3.4511    3.9828    0.0000 C   0  0  0  0  0  0  0  0  0  0  0  0
   -2.1892    4.7938    0.0000 C   0  0  0  0  0  0  0  0  0  0  0  0
   -0.7500    5.2164    0.0000 C   0  0  0  0  0  0  0  0  0  0  0  0
    0.7500    5.2164    0.0000 C   0  0  0  0  0  0  0  0  0  0  0  0
    2.1892    4.7938    0.0000 C   0  0  0  0  0  0  0  0  0  0  0  0
    3.4511    3.9828    0.0000 C   0  0  0  0  0  0  0  0  0  0  0  0
    4.4334    2.8492    0.0000 C   0  0  0  0  0  0  0  0  0  0  0  0
    5.0565    1.4847    0.0000 C   0  0  0  0  0  0  0  0  0  0  0  0
    6.4958    1.9073    0.0000 O   0  0  0  0  0  0  0  0  0  0  0  0
  1  2  1  0
  2  3  2  0
  2  4  1  0
  4  5  1  0
  5  6  2  0
  6  7  1  0
  7  8  2  0
  8  9  1  0
  9 10  2  0
 10 11  1  0
 11 12  2  0
 12 13  1  0
 13 14  2  0
 14 15  1  0
 15 16  2  0
 16 17  1  0
 17 18  2  0
 18 19  1  0
 19 20  2  0
 20 21  1  0
 21 22  2  0
 22 23  1  0
 23 24  2  0
 24 25  1  0
 25 26  2  0
 26 27  1  0
 26  5  1  0
M  END
>  <Title>  (732) 
idABCDgen8

$$$$

     RDKit          2D

 28 28  0  0  0  0  0  0  0  0999 V2000
    8.4722   -1.2990    0.0000 C   0  0  0  0  0  0  0  0  0  0  0  0
    7.7222    0.0000    0.0000 O   0  0  0  0  0  0  0  0  0  0  0  0
    6.2222    0.0000    0.0000 C   0  0  0  0  0  0  0  0  0  0  0  0
    6.0414   -1.4891    0.0000 C   0  0  0  0  0  0  0  0  0  0  0  0
    5.5095   -2.8916    0.0000 C   0  0  0  0  0  0  0  0  0  0  0  0
    4.6574   -4.1261    0.0000 C   0  0  0  0  0  0  0  0  0  0  0  0
    3.5346   -5.1207    0.0000 C   0  0  0  0  0  0  0  0  0  0  0  0
    2.2064   -5.8178    0.0000 C   0  0  0  0  0  0  0  0  0  0  0  0
    0.7500   -6.1768    0.0000 C   0  0  0  0  0  0  0  0  0  0  0  0
   -0.7500   -6.1768    0.0000 C   0  0  0  0  0  0  0  0  0  0  0  0
   -2.2064   -5.8178    0.0000 C   0  0  0  0  0  0  0  0  0  0  0  0
   -3.5346   -5.1207    0.0000 C   0  0  0  0  0  0  0  0  0  0  0  0
   -4.6574   -4.1261    0.0000 C   0  0  0  0  0  0  0  0  0  0  0  0
   -5.5095   -2.8916    0.0000 C   0  0  0  0  0  0  0  0  0  0  0  0
   -6.0414   -1.4891    0.0000 C   0  0  0  0  0  0  0  0  0  0  0  0
   -6.2222    0.0000    0.0000 C   0  0  0  0  0  0  0  0  0  0  0  0
   -6.0414    1.4891    0.0000 C   0  0  0  0  0  0  0  0  0  0  0  0
   -5.5095    2.8916    0.0000 C   0  0  0  0  0  0  0  0  0  0  0  0
   -4.6574    4.1261    0.0000 C   0  0  0  0  0  0  0  0  0  0  0  0
   -3.5346    5.1207    0.0000 C   0  0  0  0  0  0  0  0  0  0  0  0
   -2.2064    5.8178    0.0000 C   0  0  0  0  0  0  0  0  0  0  0  0
   -0.7500    6.1768    0.0000 C   0  0  0  0  0  0  0  0  0  0  0  0
    0.7500    6.1768    0.0000 C   0  0  0  0  0  0  0  0  0  0  0  0
    2.2064    5.8178    0.0000 C   0  0  0  0  0  0  0  0  0  0  0  0
    3.5346    5.1207    0.0000 C   0  0  0  0  0  0  0  0  0  0  0  0
    4.6574    4.1261    0.0000 C   0  0  0  0  0  0  0  0  0  0  0  0
    5.5095    2.8916    0.0000 C   0  0  0  0  0  0  0  0  0  0  0  0
    6.0414    1.4891    0.0000 C   0  0  0  0  0  0  0  0  0  0  0  0
  1  2  1  0
  2  3  1  0
  3  4  2  0
  4  5  1  0
  5  6  2  0
  6  7  1  0
  7  8  2  0
  8  9  1  0
  9 10  2  0
 10 11  1  0
 11 12  2  0
 12 13  1  0
 13 14  2  0
 14 15  1  0
 15 16  2  0
 16 17  1  0
 17 18  2  0
 18 19  1  0
 19 20  2  0
 20 21  1  0
 21 22  2  0
 22 23  1  0
 23 24  2  0
 24 25  1  0
 25 26  2  0
 26 27  1  0
 27 28  2  0
 28  3  1  0
M  END
>  <Title>  (733) 
idABCEgen8

$$$$

     RDKit          2D

 52 59  0  0  0  0  0  0  0  0999 V2000
   -9.3353   12.7246    0.0000 C   0  0  0  0  0  0  0  0  0  0  0  0
   -9.4921   11.2328    0.0000 O   0  0  0  0  0  0  0  0  0  0  0  0
   -8.2786   10.3512    0.0000 C   0  0  0  0  0  0  0  0  0  0  0  0
   -6.9082   10.9613    0.0000 C   0  0  0  0  0  0  0  0  0  0  0  0
   -5.6947   10.0796    0.0000 C   0  0  0  0  0  0  0  0  0  0  0  0
   -5.8515    8.5878    0.0000 C   0  0  0  0  0  0  0  0  0  0  0  0
   -4.6380    7.7061    0.0000 C   0  0  0  0  0  0  0  0  0  0  0  0
   -4.7948    6.2144    0.0000 C   0  0  0  0  0  0  0  0  0  0  0  0
   -6.0938    5.4644    0.0000 N   0  0  0  0  0  0  0  0  0  0  0  0
   -5.7820    3.9971    0.0000 N   0  0  0  0  0  0  0  0  0  0  0  0
   -4.2902    3.8403    0.0000 N   0  0  0  0  0  0  0  0  0  0  0  0
   -3.6801    5.2107    0.0000 N   0  0  0  0  0  0  0  0  0  0  0  0
   -2.2128    5.5225    0.0000 C   0  0  0  0  0  0  0  0  0  0  0  0
   -1.7493    6.9491    0.0000 C   0  0  0  0  0  0  0  0  0  0  0  0
   -0.2821    7.2610    0.0000 C   0  0  0  0  0  0  0  0  0  0  0  0
    0.7216    6.1463    0.0000 C   0  0  0  0  0  0  0  0  0  0  0  0
    2.1888    6.4581    0.0000 C   0  0  0  0  0  0  0  0  0  0  0  0
    2.6523    7.8847    0.0000 O   0  0  0  0  0  0  0  0  0  0  0  0
    3.1925    5.3434    0.0000 N   0  0  0  0  0  0  0  0  0  0  0  0
    4.6597    5.6553    0.0000 C   0  0  0  0  0  0  0  0  0  0  0  0
    5.2698    7.0256    0.0000 N   0  0  0  0  0  0  0  0  0  0  0  0
    6.7616    6.8688    0.0000 N   0  0  0  0  0  0  0  0  0  0  0  0
    7.0735    5.4016    0.0000 N   0  0  0  0  0  0  0  0  0  0  0  0
    5.7745    4.6516    0.0000 N   0  0  0  0  0  0  0  0  0  0  0  0
    5.6177    3.1598    0.0000 C   0  0  0  0  0  0  0  0  0  0  0  0
    4.3186    2.4098    0.0000 C   0  0  0  0  0  0  0  0  0  0  0  0
    4.6305    0.9426    0.0000 C   0  0  0  0  0  0  0  0  0  0  0  0
    6.1223    0.7858    0.0000 C   0  0  0  0  0  0  0  0  0  0  0  0
    6.8723   -0.5133    0.0000 C   0  0  0  0  0  0  0  0  0  0  0  0
    8.3723   -0.5133    0.0000 C   0  0  0  0  0  0  0  0  0  0  0  0
    9.1223   -1.8123    0.0000 C   0  0  0  0  0  0  0  0  0  0  0  0
    8.3723   -3.1113    0.0000 C   0  0  0  0  0  0  0  0  0  0  0  0
    6.8723   -3.1113    0.0000 C   0  0  0  0  0  0  0  0  0  0  0  0
    6.1223   -1.8123    0.0000 C   0  0  0  0  0  0  0  0  0  0  0  0
    4.6223   -1.8123    0.0000 C   0  0  0  0  0  0  0  0  0  0  0  0
    3.8723   -0.5133    0.0000 C   0  0  0  0  0  0  0  0  0  0  0  0
    2.3723   -0.5133    0.0000 C   0  0  0  0  0  0  0  0  0  0  0  0
    1.6223   -1.8123    0.0000 C   0  0  0  0  0  0  0  0  0  0  0  0
    2.3723   -3.1113    0.0000 C   0  0  0  0  0  0  0  0  0  0  0  0
    3.8723   -3.1113    0.0000 C   0  0  0  0  0  0  0  0  0  0  0  0
    4.6223   -4.4104    0.0000 C   0  0  0  0  0  0  0  0  0  0  0  0
    3.8723   -5.7094    0.0000 C   0  0  0  0  0  0  0  0  0  0  0  0
    4.6223   -7.0084    0.0000 C   0  0  0  0  0  0  0  0  0  0  0  0
    6.1223   -7.0084    0.0000 C   0  0  0  0  0  0  0  0  0  0  0  0
    6.8723   -5.7094    0.0000 C   0  0  0  0  0  0  0  0  0  0  0  0
    6.1223   -4.4104    0.0000 C   0  0  0  0  0  0  0  0  0  0  0  0
    6.7324    2.1561    0.0000 C   0  0  0  0  0  0  0  0  0  0  0  0
    8.1996    2.4680    0.0000 O   0  0  0  0  0  0  0  0  0  0  0  0
    0.2581    4.7197    0.0000 C   0  0  0  0  0  0  0  0  0  0  0  0
   -1.2091    4.4078    0.0000 C   0  0  0  0  0  0  0  0  0  0  0  0
   -7.2218    7.9777    0.0000 N   0  0  0  0  0  0  0  0  0  0  0  0
   -8.4354    8.8594    0.0000 N   0  0  0  0  0  0  0  0  0  0  0  0
  1  2  1  0
  2  3  1  0
  3  4  2  0
  4  5  1  0
  5  6  2  0
  6  7  1  0
  7  8  1  0
  8  9  2  0
  9 10  1  0
 10 11  2  0
 11 12  1  0
 12 13  1  0
 13 14  2  0
 14 15  1  0
 15 16  2  0
 16 17  1  0
 17 18  2  0
 17 19  1  0
 19 20  1  0
 20 21  2  0
 21 22  1  0
 22 23  2  0
 23 24  1  0
 24 25  1  0
 25 26  2  0
 26 27  1  0
 27 28  2  0
 28 29  1  0
 29 30  2  0
 30 31  1  0
 31 32  2  0
 32 33  1  0
 33 34  2  0
 34 35  1  0
 35 36  2  0
 36 37  1  0
 37 38  2  0
 38 39  1  0
 39 40  2  0
 40 41  1  0
 41 42  2  0
 42 43  1  0
 43 44  2  0
 44 45  1  0
 45 46  2  0
 28 47  1  0
 47 48  2  0
 16 49  1  0
 49 50  2  0
  6 51  1  0
 51 52  2  0
 52  3  1  0
 12  8  1  0
 50 13  1  0
 24 20  1  0
 47 25  1  0
 34 29  1  0
 40 35  1  0
 46 41  1  0
M  END
>  <Title>  (734) 
idABCFgen8

$$$$

     RDKit          2D

 48 54  0  0  0  0  0  0  0  0999 V2000
    3.0000   -0.0000    0.0000 C   0  0  0  0  0  0  0  0  0  0  0  0
    1.5000   -0.0000    0.0000 C   0  0  0  0  0  0  0  0  0  0  0  0
    0.7500   -1.2990    0.0000 C   0  0  0  0  0  0  0  0  0  0  0  0
   -0.7500   -1.2990    0.0000 C   0  0  0  0  0  0  0  0  0  0  0  0
   -1.5000   -0.0000    0.0000 C   0  0  0  0  0  0  0  0  0  0  0  0
   -3.0000   -0.0000    0.0000 C   0  0  0  0  0  0  0  0  0  0  0  0
   -3.8817   -1.2135    0.0000 N   0  0  0  0  0  0  0  0  0  0  0  0
   -5.3083   -0.7500    0.0000 N   0  0  0  0  0  0  0  0  0  0  0  0
   -5.3083    0.7500    0.0000 N   0  0  0  0  0  0  0  0  0  0  0  0
   -3.8817    1.2135    0.0000 N   0  0  0  0  0  0  0  0  0  0  0  0
   -3.4182    2.6401    0.0000 C   0  0  0  0  0  0  0  0  0  0  0  0
   -1.9509    2.9520    0.0000 C   0  0  0  0  0  0  0  0  0  0  0  0
   -1.4874    4.3786    0.0000 C   0  0  0  0  0  0  0  0  0  0  0  0
   -2.4911    5.4933    0.0000 C   0  0  0  0  0  0  0  0  0  0  0  0
   -2.0276    6.9199    0.0000 C   0  0  0  0  0  0  0  0  0  0  0  0
   -0.5604    7.2317    0.0000 C   0  0  0  0  0  0  0  0  0  0  0  0
   -0.0968    8.6583    0.0000 C   0  0  0  0  0  0  0  0  0  0  0  0
   -1.1005    9.7730    0.0000 C   0  0  0  0  0  0  0  0  0  0  0  0
   -2.5677    9.4612    0.0000 C   0  0  0  0  0  0  0  0  0  0  0  0
   -3.0313    8.0346    0.0000 C   0  0  0  0  0  0  0  0  0  0  0  0
   -4.4985    7.7227    0.0000 C   0  0  0  0  0  0  0  0  0  0  0  0
   -5.5022    8.8374    0.0000 C   0  0  0  0  0  0  0  0  0  0  0  0
   -6.9694    8.5256    0.0000 C   0  0  0  0  0  0  0  0  0  0  0  0
   -7.4329    7.0990    0.0000 C   0  0  0  0  0  0  0  0  0  0  0  0
   -6.4292    5.9843    0.0000 C   0  0  0  0  0  0  0  0  0  0  0  0
   -4.9620    6.2961    0.0000 C   0  0  0  0  0  0  0  0  0  0  0  0
   -3.9583    5.1814    0.0000 C   0  0  0  0  0  0  0  0  0  0  0  0
   -4.4218    3.7548    0.0000 C   0  0  0  0  0  0  0  0  0  0  0  0
   -5.8891    3.4430    0.0000 C   0  0  0  0  0  0  0  0  0  0  0  0
   -6.8928    4.5577    0.0000 C   0  0  0  0  0  0  0  0  0  0  0  0
   -8.3600    4.2458    0.0000 C   0  0  0  0  0  0  0  0  0  0  0  0
   -8.8235    2.8192    0.0000 C   0  0  0  0  0  0  0  0  0  0  0  0
  -10.2907    2.5074    0.0000 C   0  0  0  0  0  0  0  0  0  0  0  0
   -7.8198    1.7045    0.0000 C   0  0  0  0  0  0  0  0  0  0  0  0
   -8.2833    0.2779    0.0000 O   0  0  0  0  0  0  0  0  0  0  0  0
   -6.3526    2.0164    0.0000 N   0  0  0  0  0  0  0  0  0  0  0  0
   -5.3489    0.9017    0.0000 C   0  0  0  0  0  0  0  0  0  0  0  0
   -5.8124   -0.5249    0.0000 C   0  0  0  0  0  0  0  0  0  0  0  0
   -4.8087   -1.6396    0.0000 C   0  0  0  0  0  0  0  0  0  0  0  0
   -3.3415   -1.3278    0.0000 C   0  0  0  0  0  0  0  0  0  0  0  0
   -2.3378   -2.4425    0.0000 C   0  0  0  0  0  0  0  0  0  0  0  0
   -0.8706   -2.1306    0.0000 O   0  0  0  0  0  0  0  0  0  0  0  0
   -2.8013   -3.8691    0.0000 N   0  0  0  0  0  0  0  0  0  0  0  0
   -1.7976   -4.9838    0.0000 O   0  0  0  0  0  0  0  0  0  0  0  0
   -2.8780    0.0988    0.0000 C   0  0  0  0  0  0  0  0  0  0  0  0
   -3.8817    1.2135    0.0000 C   0  0  0  0  0  0  0  0  0  0  0  0
   -0.7500    1.2990    0.0000 C   0  0  0  0  0  0  0  0  0  0  0  0
    0.7500    1.2990    0.0000 C   0  0  0  0  0  0  0  0  0  0  0  0
  1  2  1  0
  2  3  2  0
  3  4  1  0
  4  5  2  0
  5  6  1  0
  6  7  2  0
  7  8  1  0
  8  9  2  0
  9 10  1  0
 10 11  1  0
 11 12  2  0
 12 13  1  0
 13 14  2  0
 14 15  1  0
 15 16  2  0
 16 17  1  0
 17 18  2  0
 18 19  1  0
 19 20  2  0
 20 21  1  0
 21 22  2  0
 22 23  1  0
 23 24  2  0
 24 25  1  0
 25 26  2  0
 14 27  1  0
 27 28  2  0
 28 29  1  0
 29 30  2  0
 30 31  1  0
 31 32  2  0
 32 33  1  0
 32 34  1  0
 34 35  2  0
 34 36  1  0
 36 37  1  0
 37 38  2  0
 38 39  1  0
 39 40  2  0
 40 41  1  0
 41 42  2  0
 41 43  1  0
 43 44  1  0
 40 45  1  0
 45 46  1  0
  5 47  1  0
 47 48  2  0
 48  2  1  0
 10  6  1  0
 28 11  1  0
 36 29  1  0
 46 37  1  0
 20 15  1  0
 26 21  1  0
M  END
>  <Title>  (735) 
idABCGgen8

$$$$

     RDKit          2D

 19 19  0  0  0  0  0  0  0  0999 V2000
    5.5816    0.0000    0.0000 C   0  0  0  0  0  0  0  0  0  0  0  0
    4.0816    0.0000    0.0000 C   0  0  0  0  0  0  0  0  0  0  0  0
    3.8060    1.4745    0.0000 C   0  0  0  0  0  0  0  0  0  0  0  0
    3.0164    2.7498    0.0000 C   0  0  0  0  0  0  0  0  0  0  0  0
    1.8193    3.6537    0.0000 C   0  0  0  0  0  0  0  0  0  0  0  0
    0.3766    4.0642    0.0000 C   0  0  0  0  0  0  0  0  0  0  0  0
    0.5150    5.5578    0.0000 O   0  0  0  0  0  0  0  0  0  0  0  0
   -1.1170    3.9258    0.0000 C   0  0  0  0  0  0  0  0  0  0  0  0
   -2.4597    3.2572    0.0000 C   0  0  0  0  0  0  0  0  0  0  0  0
   -3.4703    2.1487    0.0000 C   0  0  0  0  0  0  0  0  0  0  0  0
   -4.0121    0.7500    0.0000 C   0  0  0  0  0  0  0  0  0  0  0  0
   -4.0121   -0.7500    0.0000 C   0  0  0  0  0  0  0  0  0  0  0  0
   -3.4703   -2.1487    0.0000 C   0  0  0  0  0  0  0  0  0  0  0  0
   -2.4597   -3.2572    0.0000 C   0  0  0  0  0  0  0  0  0  0  0  0
   -1.1170   -3.9258    0.0000 C   0  0  0  0  0  0  0  0  0  0  0  0
    0.3766   -4.0642    0.0000 C   0  0  0  0  0  0  0  0  0  0  0  0
    1.8193   -3.6537    0.0000 C   0  0  0  0  0  0  0  0  0  0  0  0
    3.0164   -2.7498    0.0000 C   0  0  0  0  0  0  0  0  0  0  0  0
    3.8060   -1.4745    0.0000 C   0  0  0  0  0  0  0  0  0  0  0  0
  1  2  1  0
  2  3  2  0
  3  4  1  0
  4  5  2  0
  5  6  2  0
  6  7  1  0
  6  8  1  0
  8  9  2  0
  9 10  1  0
 10 11  2  0
 11 12  1  0
 12 13  2  0
 13 14  1  0
 14 15  2  0
 15 16  1  0
 16 17  2  0
 17 18  1  0
 18 19  2  0
 19  2  1  0
M  END
>  <Title>  (736) 
idABCHgen8

$$$$

     RDKit          2D

 22 24  0  0  0  0  0  0  0  0999 V2000
    3.0000    0.0000    0.0000 C   0  0  0  0  0  0  0  0  0  0  0  0
    1.5000    0.0000    0.0000 C   0  0  0  0  0  0  0  0  0  0  0  0
    0.7500   -1.2990    0.0000 C   0  0  0  0  0  0  0  0  0  0  0  0
   -0.7500   -1.2990    0.0000 C   0  0  0  0  0  0  0  0  0  0  0  0
   -1.5000    0.0000    0.0000 C   0  0  0  0  0  0  0  0  0  0  0  0
   -3.0000    0.0000    0.0000 C   0  0  0  0  0  0  0  0  0  0  0  0
   -3.8817   -1.2135    0.0000 N   0  0  0  0  0  0  0  0  0  0  0  0
   -5.3083   -0.7500    0.0000 N   0  0  0  0  0  0  0  0  0  0  0  0
   -5.3083    0.7500    0.0000 N   0  0  0  0  0  0  0  0  0  0  0  0
   -3.8817    1.2135    0.0000 N   0  0  0  0  0  0  0  0  0  0  0  0
   -3.4182    2.6401    0.0000 C   0  0  0  0  0  0  0  0  0  0  0  0
   -1.9509    2.9520    0.0000 C   0  0  0  0  0  0  0  0  0  0  0  0
   -1.4874    4.3786    0.0000 C   0  0  0  0  0  0  0  0  0  0  0  0
   -2.4911    5.4933    0.0000 C   0  0  0  0  0  0  0  0  0  0  0  0
   -2.0276    6.9199    0.0000 C   0  0  0  0  0  0  0  0  0  0  0  0
   -3.0313    8.0346    0.0000 O   0  0  0  0  0  0  0  0  0  0  0  0
   -0.5604    7.2317    0.0000 N   0  0  0  0  0  0  0  0  0  0  0  0
   -0.0968    8.6583    0.0000 O   0  0  0  0  0  0  0  0  0  0  0  0
   -3.9583    5.1814    0.0000 C   0  0  0  0  0  0  0  0  0  0  0  0
   -4.4218    3.7548    0.0000 C   0  0  0  0  0  0  0  0  0  0  0  0
   -0.7500    1.2990    0.0000 C   0  0  0  0  0  0  0  0  0  0  0  0
    0.7500    1.2990    0.0000 C   0  0  0  0  0  0  0  0  0  0  0  0
  1  2  1  0
  2  3  2  0
  3  4  1  0
  4  5  2  0
  5  6  1  0
  6  7  2  0
  7  8  1  0
  8  9  2  0
  9 10  1  0
 10 11  1  0
 11 12  2  0
 12 13  1  0
 13 14  2  0
 14 15  1  0
 15 16  2  0
 15 17  1  0
 17 18  1  0
 14 19  1  0
 19 20  1  0
  5 21  1  0
 21 22  1  0
 22  2  1  0
 10  6  1  0
 20 11  1  0
M  END
>  <Title>  (737) 
idABCIgen8

$$$$

     RDKit          2D

 34 37  0  0  0  0  0  0  0  0999 V2000
    5.6205   -1.2990    0.0000 C   0  0  0  0  0  0  0  0  0  0  0  0
    4.8705    0.0000    0.0000 O   0  0  0  0  0  0  0  0  0  0  0  0
    3.3705    0.0000    0.0000 C   0  0  0  0  0  0  0  0  0  0  0  0
    3.0367   -1.4624    0.0000 C   0  0  0  0  0  0  0  0  0  0  0  0
    2.1015   -2.6351    0.0000 C   0  0  0  0  0  0  0  0  0  0  0  0
    0.7500   -3.2860    0.0000 C   0  0  0  0  0  0  0  0  0  0  0  0
   -0.7500   -3.2860    0.0000 C   0  0  0  0  0  0  0  0  0  0  0  0
   -2.1015   -2.6351    0.0000 C   0  0  0  0  0  0  0  0  0  0  0  0
   -3.0367   -1.4624    0.0000 C   0  0  0  0  0  0  0  0  0  0  0  0
   -3.3705    0.0000    0.0000 C   0  0  0  0  0  0  0  0  0  0  0  0
   -3.0367    1.4624    0.0000 C   0  0  0  0  0  0  0  0  0  0  0  0
   -2.1015    2.6351    0.0000 C   0  0  0  0  0  0  0  0  0  0  0  0
   -0.7500    3.2860    0.0000 C   0  0  0  0  0  0  0  0  0  0  0  0
    0.7500    3.2860    0.0000 C   0  0  0  0  0  0  0  0  0  0  0  0
    1.0838    4.7484    0.0000 N   0  0  0  0  0  0  0  0  0  0  0  0
    2.5171    5.1905    0.0000 C   0  0  0  0  0  0  0  0  0  0  0  0
    2.8509    6.6529    0.0000 N   0  0  0  0  0  0  0  0  0  0  0  0
    1.7513    7.6731    0.0000 N   0  0  0  0  0  0  0  0  0  0  0  0
    0.3180    7.2310    0.0000 N   0  0  0  0  0  0  0  0  0  0  0  0
   -0.0158    5.7686    0.0000 N   0  0  0  0  0  0  0  0  0  0  0  0
   -1.4492    5.3265    0.0000 C   0  0  0  0  0  0  0  0  0  0  0  0
   -2.5487    6.3467    0.0000 C   0  0  0  0  0  0  0  0  0  0  0  0
   -3.9821    5.9046    0.0000 C   0  0  0  0  0  0  0  0  0  0  0  0
   -4.3159    4.4422    0.0000 C   0  0  0  0  0  0  0  0  0  0  0  0
   -5.7492    4.0001    0.0000 C   0  0  0  0  0  0  0  0  0  0  0  0
   -6.8488    5.0203    0.0000 C   0  0  0  0  0  0  0  0  0  0  0  0
   -8.2822    4.5782    0.0000 C   0  0  0  0  0  0  0  0  0  0  0  0
   -8.6160    3.1158    0.0000 C   0  0  0  0  0  0  0  0  0  0  0  0
   -7.5164    2.0956    0.0000 C   0  0  0  0  0  0  0  0  0  0  0  0
   -6.0830    2.5377    0.0000 C   0  0  0  0  0  0  0  0  0  0  0  0
   -3.2163    3.4220    0.0000 C   0  0  0  0  0  0  0  0  0  0  0  0
   -1.7829    3.8641    0.0000 C   0  0  0  0  0  0  0  0  0  0  0  0
    2.1015    2.6351    0.0000 C   0  0  0  0  0  0  0  0  0  0  0  0
    3.0367    1.4624    0.0000 C   0  0  0  0  0  0  0  0  0  0  0  0
  1  2  1  0
  2  3  1  0
  3  4  2  0
  4  5  1  0
  5  6  2  0
  6  7  1  0
  7  8  2  0
  8  9  1  0
  9 10  2  0
 10 11  1  0
 11 12  2  0
 12 13  1  0
 13 14  2  0
 14 15  1  0
 15 16  1  0
 16 17  2  0
 17 18  1  0
 18 19  2  0
 19 20  1  0
 20 21  1  0
 21 22  2  0
 22 23  1  0
 23 24  2  0
 24 25  1  0
 25 26  2  0
 26 27  1  0
 27 28  2  0
 28 29  1  0
 29 30  2  0
 24 31  1  0
 31 32  2  0
 14 33  1  0
 33 34  2  0
 34  3  1  0
 20 15  1  0
 32 21  1  0
 30 25  1  0
M  END
>  <Title>  (738) 
idABCJgen8

$$$$

     RDKit          2D

 15 16  0  0  0  0  0  0  0  0999 V2000
    3.7488    5.7570    0.0000 C   0  0  0  0  0  0  0  0  0  0  0  0
    2.5531    4.8513    0.0000 C   0  0  0  0  0  0  0  0  0  0  0  0
    2.9952    3.4180    0.0000 C   0  0  0  0  0  0  0  0  0  0  0  0
    2.4126    2.0358    0.0000 C   0  0  0  0  0  0  0  0  0  0  0  0
    1.0777    1.3515    0.0000 C   0  0  0  0  0  0  0  0  0  0  0  0
    1.7286    0.0000    0.0000 C   0  0  0  0  0  0  0  0  0  0  0  0
    1.0777   -1.3515    0.0000 C   0  0  0  0  0  0  0  0  0  0  0  0
   -0.3846   -1.6852    0.0000 C   0  0  0  0  0  0  0  0  0  0  0  0
   -1.5574   -0.7500    0.0000 C   0  0  0  0  0  0  0  0  0  0  0  0
   -1.5574    0.7500    0.0000 C   0  0  0  0  0  0  0  0  0  0  0  0
   -0.3846    1.6852    0.0000 C   0  0  0  0  0  0  0  0  0  0  0  0
   -1.2904    2.8809    0.0000 C   0  0  0  0  0  0  0  0  0  0  0  0
   -1.2156    4.3791    0.0000 C   0  0  0  0  0  0  0  0  0  0  0  0
   -0.1953    5.4786    0.0000 C   0  0  0  0  0  0  0  0  0  0  0  0
    1.2930    5.6652    0.0000 C   0  0  0  0  0  0  0  0  0  0  0  0
  1  2  1  0
  2  3  2  0
  3  4  1  0
  4  5  2  0
  5  6  1  0
  6  7  2  0
  7  8  1  0
  8  9  2  0
  9 10  1  0
 10 11  2  0
 11 12  1  0
 12 13  1  0
 13 14  1  0
 14 15  2  0
 15  2  1  0
 11  5  1  0
M  END
>  <Title>  (739) 
idABCKgen8

$$$$

     RDKit          2D

 39 44  0  0  0  0  0  0  0  0999 V2000
    5.2500   -1.2990    0.0000 C   0  0  0  0  0  0  0  0  0  0  0  0
    3.7500   -1.2990    0.0000 C   0  0  0  0  0  0  0  0  0  0  0  0
    3.0000   -2.5981    0.0000 O   0  0  0  0  0  0  0  0  0  0  0  0
    3.0000    0.0000    0.0000 O   0  0  0  0  0  0  0  0  0  0  0  0
    1.5000    0.0000    0.0000 C   0  0  0  0  0  0  0  0  0  0  0  0
    0.7500   -1.2990    0.0000 C   0  0  0  0  0  0  0  0  0  0  0  0
   -0.7500   -1.2990    0.0000 C   0  0  0  0  0  0  0  0  0  0  0  0
   -1.5000    0.0000    0.0000 C   0  0  0  0  0  0  0  0  0  0  0  0
   -3.0000    0.0000    0.0000 C   0  0  0  0  0  0  0  0  0  0  0  0
   -3.8817   -1.2135    0.0000 N   0  0  0  0  0  0  0  0  0  0  0  0
   -5.3083   -0.7500    0.0000 N   0  0  0  0  0  0  0  0  0  0  0  0
   -5.3083    0.7500    0.0000 N   0  0  0  0  0  0  0  0  0  0  0  0
   -3.8817    1.2135    0.0000 N   0  0  0  0  0  0  0  0  0  0  0  0
   -3.4182    2.6401    0.0000 C   0  0  0  0  0  0  0  0  0  0  0  0
   -4.2998    3.8536    0.0000 C   0  0  0  0  0  0  0  0  0  0  0  0
   -3.4182    5.0672    0.0000 C   0  0  0  0  0  0  0  0  0  0  0  0
   -1.9916    4.6036    0.0000 C   0  0  0  0  0  0  0  0  0  0  0  0
   -0.7780    5.4853    0.0000 C   0  0  0  0  0  0  0  0  0  0  0  0
    0.6485    5.0218    0.0000 N   0  0  0  0  0  0  0  0  0  0  0  0
    1.5302    6.2353    0.0000 N   0  0  0  0  0  0  0  0  0  0  0  0
    0.6485    7.4488    0.0000 N   0  0  0  0  0  0  0  0  0  0  0  0
   -0.7780    6.9853    0.0000 N   0  0  0  0  0  0  0  0  0  0  0  0
   -1.9916    7.8670    0.0000 C   0  0  0  0  0  0  0  0  0  0  0  0
   -1.9916    9.3670    0.0000 C   0  0  0  0  0  0  0  0  0  0  0  0
   -3.4182    9.8305    0.0000 C   0  0  0  0  0  0  0  0  0  0  0  0
   -4.2998    8.6170    0.0000 C   0  0  0  0  0  0  0  0  0  0  0  0
   -5.7998    8.6170    0.0000 C   0  0  0  0  0  0  0  0  0  0  0  0
   -6.5498    7.3180    0.0000 C   0  0  0  0  0  0  0  0  0  0  0  0
   -8.0498    7.3180    0.0000 C   0  0  0  0  0  0  0  0  0  0  0  0
   -8.7998    8.6170    0.0000 C   0  0  0  0  0  0  0  0  0  0  0  0
   -8.0498    9.9160    0.0000 C   0  0  0  0  0  0  0  0  0  0  0  0
   -6.5498    9.9160    0.0000 C   0  0  0  0  0  0  0  0  0  0  0  0
   -3.4182    7.4035    0.0000 C   0  0  0  0  0  0  0  0  0  0  0  0
   -3.8817    5.9769    0.0000 O   0  0  0  0  0  0  0  0  0  0  0  0
   -1.9916    3.1036    0.0000 C   0  0  0  0  0  0  0  0  0  0  0  0
   -0.7780    2.2220    0.0000 O   0  0  0  0  0  0  0  0  0  0  0  0
   -0.7500    1.2990    0.0000 N   0  0  0  0  0  0  0  0  0  0  0  0
    0.7500    1.2990    0.0000 C   0  0  0  0  0  0  0  0  0  0  0  0
    1.5000    2.5981    0.0000 O   0  0  0  0  0  0  0  0  0  0  0  0
  1  2  1  0
  2  3  2  0
  2  4  1  0
  4  5  1  0
  5  6  2  0
  6  7  1  0
  7  8  2  0
  8  9  1  0
  9 10  2  0
 10 11  1  0
 11 12  2  0
 12 13  1  0
 13 14  1  0
 14 15  2  0
 15 16  1  0
 16 17  2  0
 17 18  1  0
 18 19  2  0
 19 20  1  0
 20 21  2  0
 21 22  1  0
 22 23  1  0
 23 24  2  0
 24 25  1  0
 25 26  2  0
 26 27  1  0
 27 28  2  0
 28 29  1  0
 29 30  2  0
 30 31  1  0
 31 32  2  0
 26 33  1  0
 33 34  2  0
 17 35  1  0
 35 36  2  0
  8 37  1  0
 37 38  1  0
 38 39  2  0
 38  5  1  0
 13  9  1  0
 35 14  1  0
 22 18  1  0
 33 23  1  0
 32 27  1  0
M  END
>  <Title>  (740) 
idABCLgen8

$$$$

     RDKit          2D

 17 18  0  0  0  0  0  0  0  0999 V2000
    1.5000   -5.1962    0.0000 C   0  0  0  0  0  0  0  0  0  0  0  0
    0.7500   -3.8971    0.0000 N   0  0  0  0  0  0  0  0  0  0  0  0
    1.5000   -2.5981    0.0000 C   0  0  0  0  0  0  0  0  0  0  0  0
    0.7500   -1.2990    0.0000 C   0  0  0  0  0  0  0  0  0  0  0  0
    1.5000    0.0000    0.0000 C   0  0  0  0  0  0  0  0  0  0  0  0
    0.7500    1.2990    0.0000 C   0  0  0  0  0  0  0  0  0  0  0  0
   -0.7500    1.2990    0.0000 C   0  0  0  0  0  0  0  0  0  0  0  0
   -1.5000    0.0000    0.0000 C   0  0  0  0  0  0  0  0  0  0  0  0
   -0.7500   -1.2990    0.0000 C   0  0  0  0  0  0  0  0  0  0  0  0
   -0.7500   -3.8971    0.0000 C   0  0  0  0  0  0  0  0  0  0  0  0
   -1.5000   -2.5981    0.0000 O   0  0  0  0  0  0  0  0  0  0  0  0
   -1.5000   -5.1962    0.0000 C   0  0  0  0  0  0  0  0  0  0  0  0
   -3.0000   -5.1962    0.0000 C   0  0  0  0  0  0  0  0  0  0  0  0
   -3.7500   -6.4952    0.0000 C   0  0  0  0  0  0  0  0  0  0  0  0
   -3.0000   -7.7942    0.0000 C   0  0  0  0  0  0  0  0  0  0  0  0
   -1.5000   -7.7942    0.0000 C   0  0  0  0  0  0  0  0  0  0  0  0
   -0.7500   -6.4952    0.0000 C   0  0  0  0  0  0  0  0  0  0  0  0
  1  2  1  0
  2  3  1  0
  3  4  1  0
  4  5  2  0
  5  6  1  0
  6  7  2  0
  7  8  1  0
  8  9  2  0
  2 10  1  0
 10 11  2  0
 10 12  1  0
 12 13  2  0
 13 14  1  0
 14 15  2  0
 15 16  1  0
 16 17  2  0
  9  4  1  0
 17 12  1  0
M  END
>  <Title>  (741) 
idABCMgen8

$$$$

     RDKit          2D

 18 19  0  0  0  0  0  0  0  0999 V2000
   -6.1608    4.7607    0.0000 O   0  0  0  0  0  0  0  0  0  0  0  0
   -4.6744    4.5593    0.0000 C   0  0  0  0  0  0  0  0  0  0  0  0
   -4.1473    5.9637    0.0000 C   0  0  0  0  0  0  0  0  0  0  0  0
   -3.0631    7.0003    0.0000 C   0  0  0  0  0  0  0  0  0  0  0  0
   -1.6365    7.4638    0.0000 C   0  0  0  0  0  0  0  0  0  0  0  0
   -0.1501    7.2625    0.0000 C   0  0  0  0  0  0  0  0  0  0  0  0
    1.1017    6.4361    0.0000 C   0  0  0  0  0  0  0  0  0  0  0  0
    1.8711    5.1484    0.0000 C   0  0  0  0  0  0  0  0  0  0  0  0
    2.0056    3.6545    0.0000 C   0  0  0  0  0  0  0  0  0  0  0  0
    1.4785    2.2501    0.0000 C   0  0  0  0  0  0  0  0  0  0  0  0
    0.3943    1.2135    0.0000 C   0  0  0  0  0  0  0  0  0  0  0  0
    1.2760    0.0000    0.0000 C   0  0  0  0  0  0  0  0  0  0  0  0
    0.3943   -1.2135    0.0000 C   0  0  0  0  0  0  0  0  0  0  0  0
   -1.0323   -0.7500    0.0000 C   0  0  0  0  0  0  0  0  0  0  0  0
   -1.0323    0.7500    0.0000 C   0  0  0  0  0  0  0  0  0  0  0  0
   -2.5187    0.9513    0.0000 C   0  0  0  0  0  0  0  0  0  0  0  0
   -3.7706    1.7777    0.0000 C   0  0  0  0  0  0  0  0  0  0  0  0
   -4.5399    3.0654    0.0000 C   0  0  0  0  0  0  0  0  0  0  0  0
  1  2  1  0
  2  3  2  0
  3  4  1  0
  4  5  2  0
  5  6  1  0
  6  7  2  0
  7  8  1  0
  8  9  2  0
  9 10  1  0
 10 11  2  0
 11 12  1  0
 12 13  2  0
 13 14  1  0
 14 15  2  0
 15 16  1  0
 16 17  1  0
 17 18  1  0
 18  2  1  0
 15 11  1  0
M  END
>  <Title>  (742) 
idABCNgen8

$$$$

     RDKit          2D

 51 57  0  0  0  0  0  0  0  0999 V2000
    3.9271    0.0000    0.0000 C   0  0  0  0  0  0  0  0  0  0  0  0
    2.4271    0.0000    0.0000 C   0  0  0  0  0  0  0  0  0  0  0  0
    1.9635   -1.4266    0.0000 C   0  0  0  0  0  0  0  0  0  0  0  0
    0.7500   -2.3083    0.0000 C   0  0  0  0  0  0  0  0  0  0  0  0
   -0.7500   -2.3083    0.0000 C   0  0  0  0  0  0  0  0  0  0  0  0
   -1.2135   -3.7348    0.0000 C   0  0  0  0  0  0  0  0  0  0  0  0
   -0.3318   -4.9484    0.0000 N   0  0  0  0  0  0  0  0  0  0  0  0
   -1.2135   -6.1619    0.0000 N   0  0  0  0  0  0  0  0  0  0  0  0
   -2.6401   -5.6984    0.0000 N   0  0  0  0  0  0  0  0  0  0  0  0
   -2.6401   -4.1984    0.0000 N   0  0  0  0  0  0  0  0  0  0  0  0
   -3.8536   -3.3167    0.0000 C   0  0  0  0  0  0  0  0  0  0  0  0
   -3.6968   -1.8249    0.0000 C   0  0  0  0  0  0  0  0  0  0  0  0
   -4.9104   -0.9432    0.0000 C   0  0  0  0  0  0  0  0  0  0  0  0
   -6.2807   -1.5533    0.0000 C   0  0  0  0  0  0  0  0  0  0  0  0
   -6.4375   -3.0451    0.0000 C   0  0  0  0  0  0  0  0  0  0  0  0
   -5.2240   -3.9268    0.0000 C   0  0  0  0  0  0  0  0  0  0  0  0
   -5.3807   -5.4186    0.0000 C   0  0  0  0  0  0  0  0  0  0  0  0
   -4.2660   -6.4223    0.0000 N   0  0  0  0  0  0  0  0  0  0  0  0
   -4.8761   -7.7926    0.0000 N   0  0  0  0  0  0  0  0  0  0  0  0
   -6.3679   -7.6358    0.0000 N   0  0  0  0  0  0  0  0  0  0  0  0
   -6.6798   -6.1686    0.0000 N   0  0  0  0  0  0  0  0  0  0  0  0
   -8.0501   -5.5585    0.0000 C   0  0  0  0  0  0  0  0  0  0  0  0
   -9.3491   -6.3085    0.0000 C   0  0  0  0  0  0  0  0  0  0  0  0
  -10.4639   -5.3048    0.0000 C   0  0  0  0  0  0  0  0  0  0  0  0
   -9.8538   -3.9345    0.0000 C   0  0  0  0  0  0  0  0  0  0  0  0
  -10.6038   -2.6354    0.0000 C   0  0  0  0  0  0  0  0  0  0  0  0
   -9.9936   -1.2651    0.0000 N   0  0  0  0  0  0  0  0  0  0  0  0
  -11.1084   -0.2614    0.0000 N   0  0  0  0  0  0  0  0  0  0  0  0
  -12.4074   -1.0114    0.0000 N   0  0  0  0  0  0  0  0  0  0  0  0
  -12.0955   -2.4786    0.0000 N   0  0  0  0  0  0  0  0  0  0  0  0
  -13.0992   -3.5934    0.0000 C   0  0  0  0  0  0  0  0  0  0  0  0
  -14.5665   -3.2815    0.0000 C   0  0  0  0  0  0  0  0  0  0  0  0
  -15.5701   -4.3962    0.0000 C   0  0  0  0  0  0  0  0  0  0  0  0
  -15.1066   -5.8228    0.0000 C   0  0  0  0  0  0  0  0  0  0  0  0
  -16.1103   -6.9375    0.0000 C   0  0  0  0  0  0  0  0  0  0  0  0
  -17.5775   -6.6256    0.0000 O   0  0  0  0  0  0  0  0  0  0  0  0
  -15.6468   -8.3641    0.0000 N   0  0  0  0  0  0  0  0  0  0  0  0
  -16.6505   -9.4788    0.0000 O   0  0  0  0  0  0  0  0  0  0  0  0
  -13.6394   -6.1347    0.0000 C   0  0  0  0  0  0  0  0  0  0  0  0
  -12.6357   -5.0199    0.0000 C   0  0  0  0  0  0  0  0  0  0  0  0
   -8.3620   -4.0913    0.0000 C   0  0  0  0  0  0  0  0  0  0  0  0
   -7.3583   -2.9765    0.0000 O   0  0  0  0  0  0  0  0  0  0  0  0
   -1.9635   -1.4266    0.0000 N   0  0  0  0  0  0  0  0  0  0  0  0
   -2.4271    0.0000    0.0000 C   0  0  0  0  0  0  0  0  0  0  0  0
   -3.9271    0.0000    0.0000 C   0  0  0  0  0  0  0  0  0  0  0  0
   -4.6771    1.2990    0.0000 O   0  0  0  0  0  0  0  0  0  0  0  0
   -1.9635    1.4266    0.0000 C   0  0  0  0  0  0  0  0  0  0  0  0
   -3.1771    2.3083    0.0000 C   0  0  0  0  0  0  0  0  0  0  0  0
   -0.7500    2.3083    0.0000 C   0  0  0  0  0  0  0  0  0  0  0  0
    0.7500    2.3083    0.0000 C   0  0  0  0  0  0  0  0  0  0  0  0
    1.9635    1.4266    0.0000 C   0  0  0  0  0  0  0  0  0  0  0  0
  1  2  1  0
  2  3  2  0
  3  4  1  0
  4  5  2  0
  5  6  1  0
  6  7  2  0
  7  8  1  0
  8  9  2  0
  9 10  1  0
 10 11  1  0
 11 12  1  0
 12 13  1  0
 13 14  1  0
 14 15  1  0
 15 16  1  0
 16 17  1  0
 17 18  2  0
 18 19  1  0
 19 20  2  0
 20 21  1  0
 21 22  1  0
 22 23  2  0
 23 24  1  0
 24 25  2  0
 25 26  1  0
 26 27  2  0
 27 28  1  0
 28 29  2  0
 29 30  1  0
 30 31  1  0
 31 32  2  0
 32 33  1  0
 33 34  2  0
 34 35  1  0
 35 36  2  0
 35 37  1  0
 37 38  1  0
 34 39  1  0
 39 40  1  0
 25 41  1  0
 41 42  2  0
  5 43  1  0
 43 44  1  0
 44 45  1  0
 45 46  1  0
 44 47  1  0
 47 48  1  0
 47 49  2  0
 49 50  1  0
 50 51  2  0
 51  2  1  0
 10  6  1  0
 16 11  1  0
 21 17  1  0
 41 22  1  0
 30 26  1  0
 40 31  1  0
M  END
>  <Title>  (743) 
idABCOgen8

$$$$

     RDKit          2D

 60 69  0  0  0  0  0  0  0  0999 V2000
    3.0000    0.0000    0.0000 C   0  0  0  0  0  0  0  0  0  0  0  0
    1.5000    0.0000    0.0000 C   0  0  0  0  0  0  0  0  0  0  0  0
    0.7500   -1.2990    0.0000 C   0  0  0  0  0  0  0  0  0  0  0  0
   -0.7500   -1.2990    0.0000 C   0  0  0  0  0  0  0  0  0  0  0  0
   -1.5000    0.0000    0.0000 C   0  0  0  0  0  0  0  0  0  0  0  0
   -3.0000    0.0000    0.0000 C   0  0  0  0  0  0  0  0  0  0  0  0
   -3.8817   -1.2135    0.0000 N   0  0  0  0  0  0  0  0  0  0  0  0
   -5.3083   -0.7500    0.0000 N   0  0  0  0  0  0  0  0  0  0  0  0
   -5.3083    0.7500    0.0000 N   0  0  0  0  0  0  0  0  0  0  0  0
   -3.8817    1.2135    0.0000 N   0  0  0  0  0  0  0  0  0  0  0  0
   -3.4182    2.6401    0.0000 C   0  0  0  0  0  0  0  0  0  0  0  0
   -1.9509    2.9520    0.0000 C   0  0  0  0  0  0  0  0  0  0  0  0
   -1.4874    4.3786    0.0000 C   0  0  0  0  0  0  0  0  0  0  0  0
   -2.4911    5.4933    0.0000 C   0  0  0  0  0  0  0  0  0  0  0  0
   -3.9583    5.1814    0.0000 C   0  0  0  0  0  0  0  0  0  0  0  0
   -4.4218    3.7548    0.0000 C   0  0  0  0  0  0  0  0  0  0  0  0
   -5.8891    3.4430    0.0000 C   0  0  0  0  0  0  0  0  0  0  0  0
   -6.4992    2.0726    0.0000 C   0  0  0  0  0  0  0  0  0  0  0  0
   -7.9910    2.2294    0.0000 N   0  0  0  0  0  0  0  0  0  0  0  0
   -8.3028    3.6967    0.0000 N   0  0  0  0  0  0  0  0  0  0  0  0
   -7.0038    4.4467    0.0000 N   0  0  0  0  0  0  0  0  0  0  0  0
   -6.8470    5.9384    0.0000 C   0  0  0  0  0  0  0  0  0  0  0  0
   -7.9617    6.9421    0.0000 C   0  0  0  0  0  0  0  0  0  0  0  0
   -7.3516    8.3125    0.0000 C   0  0  0  0  0  0  0  0  0  0  0  0
   -5.8598    8.1557    0.0000 C   0  0  0  0  0  0  0  0  0  0  0  0
   -4.8561    9.2704    0.0000 C   0  0  0  0  0  0  0  0  0  0  0  0
   -3.3643    9.1136    0.0000 N   0  0  0  0  0  0  0  0  0  0  0  0
   -2.7542   10.4839    0.0000 N   0  0  0  0  0  0  0  0  0  0  0  0
   -3.8690   11.4876    0.0000 N   0  0  0  0  0  0  0  0  0  0  0  0
   -5.1680   10.7376    0.0000 N   0  0  0  0  0  0  0  0  0  0  0  0
   -6.5383   11.3477    0.0000 C   0  0  0  0  0  0  0  0  0  0  0  0
   -7.7518   10.4660    0.0000 C   0  0  0  0  0  0  0  0  0  0  0  0
   -9.1222   11.0761    0.0000 C   0  0  0  0  0  0  0  0  0  0  0  0
   -9.2789   12.5679    0.0000 C   0  0  0  0  0  0  0  0  0  0  0  0
   -8.0654   13.4496    0.0000 C   0  0  0  0  0  0  0  0  0  0  0  0
   -6.6951   12.8395    0.0000 C   0  0  0  0  0  0  0  0  0  0  0  0
   -5.4816   13.7212    0.0000 C   0  0  0  0  0  0  0  0  0  0  0  0
   -4.1113   13.1111    0.0000 C   0  0  0  0  0  0  0  0  0  0  0  0
   -2.8977   13.9927    0.0000 C   0  0  0  0  0  0  0  0  0  0  0  0
   -3.0545   15.4845    0.0000 C   0  0  0  0  0  0  0  0  0  0  0  0
   -4.4248   16.0946    0.0000 C   0  0  0  0  0  0  0  0  0  0  0  0
   -5.6384   15.2129    0.0000 C   0  0  0  0  0  0  0  0  0  0  0  0
   -7.0087   15.8231    0.0000 C   0  0  0  0  0  0  0  0  0  0  0  0
   -8.2222   14.9414    0.0000 C   0  0  0  0  0  0  0  0  0  0  0  0
   -9.5925   15.5515    0.0000 C   0  0  0  0  0  0  0  0  0  0  0  0
   -9.7493   17.0433    0.0000 C   0  0  0  0  0  0  0  0  0  0  0  0
   -8.5358   17.9249    0.0000 C   0  0  0  0  0  0  0  0  0  0  0  0
   -7.1655   17.3148    0.0000 C   0  0  0  0  0  0  0  0  0  0  0  0
   -5.9520   18.1965    0.0000 C   0  0  0  0  0  0  0  0  0  0  0  0
   -6.1088   19.6883    0.0000 C   0  0  0  0  0  0  0  0  0  0  0  0
   -4.8952   20.5700    0.0000 C   0  0  0  0  0  0  0  0  0  0  0  0
   -3.5249   19.9599    0.0000 C   0  0  0  0  0  0  0  0  0  0  0  0
   -3.3681   18.4681    0.0000 C   0  0  0  0  0  0  0  0  0  0  0  0
   -4.5816   17.5864    0.0000 C   0  0  0  0  0  0  0  0  0  0  0  0
   -5.5480    6.6884    0.0000 C   0  0  0  0  0  0  0  0  0  0  0  0
   -4.1776    6.0783    0.0000 N   0  0  0  0  0  0  0  0  0  0  0  0
   -2.9641    6.9600    0.0000 O   0  0  0  0  0  0  0  0  0  0  0  0
   -0.7500    1.2990    0.0000 N   0  0  0  0  0  0  0  0  0  0  0  0
    0.7500    1.2990    0.0000 C   0  0  0  0  0  0  0  0  0  0  0  0
    1.5000    2.5981    0.0000 O   0  0  0  0  0  0  0  0  0  0  0  0
  1  2  1  0
  2  3  2  0
  3  4  1  0
  4  5  2  0
  5  6  1  0
  6  7  2  0
  7  8  1  0
  8  9  2  0
  9 10  1  0
 10 11  1  0
 11 12  1  0
 12 13  1  0
 13 14  1  0
 14 15  1  0
 15 16  1  0
 16 17  1  0
 17 18  2  0
 18 19  1  0
 19 20  2  0
 20 21  1  0
 21 22  1  0
 22 23  2  0
 23 24  1  0
 24 25  2  0
 25 26  1  0
 26 27  2  0
 27 28  1  0
 28 29  2  0
 29 30  1  0
 30 31  1  0
 31 32  2  0
 32 33  1  0
 33 34  2  0
 34 35  1  0
 35 36  2  0
 36 37  1  0
 37 38  2  0
 38 39  1  0
 39 40  2  0
 40 41  1  0
 41 42  2  0
 42 43  1  0
 43 44  2  0
 44 45  1  0
 45 46  2  0
 46 47  1  0
 47 48  2  0
 48 49  1  0
 49 50  2  0
 50 51  1  0
 51 52  2  0
 52 53  1  0
 53 54  2  0
 25 55  1  0
 55 56  2  3
 56 57  1  0
  5 58  1  0
 58 59  1  0
 59 60  2  0
 59  2  1  0
 10  6  1  0
 16 11  1  0
 21 17  1  0
 55 22  1  0
 30 26  1  0
 36 31  1  0
 42 37  1  0
 48 43  1  0
 54 49  1  0
M  END
>  <Title>  (744) 
idABCPgen8

$$$$

     RDKit          2D

 12 12  0  0  0  0  0  0  0  0999 V2000
    4.1621    0.0000    0.0000 O   0  0  0  0  0  0  0  0  0  0  0  0
    2.6621    0.0000    0.0000 C   0  0  0  0  0  0  0  0  0  0  0  0
    2.2395    1.4392    0.0000 C   0  0  0  0  0  0  0  0  0  0  0  0
    1.1059    2.4215    0.0000 C   0  0  0  0  0  0  0  0  0  0  0  0
   -0.3789    2.6350    0.0000 C   0  0  0  0  0  0  0  0  0  0  0  0
   -1.7433    2.0119    0.0000 C   0  0  0  0  0  0  0  0  0  0  0  0
   -2.5543    0.7500    0.0000 C   0  0  0  0  0  0  0  0  0  0  0  0
   -2.5543   -0.7500    0.0000 C   0  0  0  0  0  0  0  0  0  0  0  0
   -1.7433   -2.0119    0.0000 C   0  0  0  0  0  0  0  0  0  0  0  0
   -0.3789   -2.6350    0.0000 C   0  0  0  0  0  0  0  0  0  0  0  0
    1.1059   -2.4215    0.0000 C   0  0  0  0  0  0  0  0  0  0  0  0
    2.2395   -1.4392    0.0000 N   0  0  0  0  0  0  0  0  0  0  0  0
  1  2  2  0
  2  3  1  0
  3  4  2  0
  4  5  1  0
  5  6  2  0
  6  7  1  0
  7  8  2  0
  8  9  1  0
  9 10  2  0
 10 11  1  0
 11 12  1  0
 12  2  1  0
M  END
>  <Title>  (745) 
idABCQgen8

$$$$

     RDKit          2D

 31 35  0  0  0  0  0  0  0  0999 V2000
    3.0000    0.0000    0.0000 C   0  0  0  0  0  0  0  0  0  0  0  0
    1.5000    0.0000    0.0000 C   0  0  0  0  0  0  0  0  0  0  0  0
    0.7500   -1.2990    0.0000 C   0  0  0  0  0  0  0  0  0  0  0  0
   -0.7500   -1.2990    0.0000 C   0  0  0  0  0  0  0  0  0  0  0  0
   -1.5000    0.0000    0.0000 C   0  0  0  0  0  0  0  0  0  0  0  0
   -3.0000    0.0000    0.0000 C   0  0  0  0  0  0  0  0  0  0  0  0
   -3.8817   -1.2135    0.0000 N   0  0  0  0  0  0  0  0  0  0  0  0
   -5.3083   -0.7500    0.0000 N   0  0  0  0  0  0  0  0  0  0  0  0
   -5.3083    0.7500    0.0000 N   0  0  0  0  0  0  0  0  0  0  0  0
   -3.8817    1.2135    0.0000 N   0  0  0  0  0  0  0  0  0  0  0  0
   -3.4182    2.6401    0.0000 C   0  0  0  0  0  0  0  0  0  0  0  0
   -4.2998    3.8536    0.0000 C   0  0  0  0  0  0  0  0  0  0  0  0
   -3.4182    5.0672    0.0000 C   0  0  0  0  0  0  0  0  0  0  0  0
   -1.9916    4.6036    0.0000 C   0  0  0  0  0  0  0  0  0  0  0  0
   -0.7780    5.4853    0.0000 C   0  0  0  0  0  0  0  0  0  0  0  0
    0.6485    5.0218    0.0000 N   0  0  0  0  0  0  0  0  0  0  0  0
    1.5302    6.2353    0.0000 N   0  0  0  0  0  0  0  0  0  0  0  0
    0.6485    7.4488    0.0000 N   0  0  0  0  0  0  0  0  0  0  0  0
   -0.7780    6.9853    0.0000 N   0  0  0  0  0  0  0  0  0  0  0  0
   -1.9916    7.8670    0.0000 C   0  0  0  0  0  0  0  0  0  0  0  0
   -1.9916    9.3670    0.0000 C   0  0  0  0  0  0  0  0  0  0  0  0
   -3.4182    9.8305    0.0000 C   0  0  0  0  0  0  0  0  0  0  0  0
   -4.2998    8.6170    0.0000 C   0  0  0  0  0  0  0  0  0  0  0  0
   -5.7998    8.6170    0.0000 C   0  0  0  0  0  0  0  0  0  0  0  0
   -3.4182    7.4035    0.0000 C   0  0  0  0  0  0  0  0  0  0  0  0
   -3.8817    5.9769    0.0000 O   0  0  0  0  0  0  0  0  0  0  0  0
   -1.9916    3.1036    0.0000 C   0  0  0  0  0  0  0  0  0  0  0  0
   -0.7780    2.2220    0.0000 O   0  0  0  0  0  0  0  0  0  0  0  0
   -0.7500    1.2990    0.0000 N   0  0  0  0  0  0  0  0  0  0  0  0
    0.7500    1.2990    0.0000 C   0  0  0  0  0  0  0  0  0  0  0  0
    1.5000    2.5981    0.0000 O   0  0  0  0  0  0  0  0  0  0  0  0
  1  2  1  0
  2  3  2  0
  3  4  1  0
  4  5  2  0
  5  6  1  0
  6  7  2  0
  7  8  1  0
  8  9  2  0
  9 10  1  0
 10 11  1  0
 11 12  2  0
 12 13  1  0
 13 14  2  0
 14 15  1  0
 15 16  2  0
 16 17  1  0
 17 18  2  0
 18 19  1  0
 19 20  1  0
 20 21  2  0
 21 22  1  0
 22 23  2  0
 23 24  1  0
 23 25  1  0
 25 26  2  0
 14 27  1  0
 27 28  2  0
  5 29  1  0
 29 30  1  0
 30 31  2  0
 30  2  1  0
 10  6  1  0
 27 11  1  0
 19 15  1  0
 25 20  1  0
M  END
>  <Title>  (746) 
idABCRgen8

$$$$

     RDKit          2D

 13 14  0  0  0  0  0  0  0  0999 V2000
    0.7468    6.7987    0.0000 C   0  0  0  0  0  0  0  0  0  0  0  0
   -0.6071    6.1530    0.0000 O   0  0  0  0  0  0  0  0  0  0  0  0
   -0.7248    4.6576    0.0000 C   0  0  0  0  0  0  0  0  0  0  0  0
    0.6118    3.9766    0.0000 C   0  0  0  0  0  0  0  0  0  0  0  0
    1.0753    2.5500    0.0000 C   0  0  0  0  0  0  0  0  0  0  0  0
    0.3943    1.2135    0.0000 C   0  0  0  0  0  0  0  0  0  0  0  0
    1.2760    0.0000    0.0000 C   0  0  0  0  0  0  0  0  0  0  0  0
    0.3943   -1.2135    0.0000 C   0  0  0  0  0  0  0  0  0  0  0  0
   -1.0323   -0.7500    0.0000 C   0  0  0  0  0  0  0  0  0  0  0  0
   -1.0323    0.7500    0.0000 C   0  0  0  0  0  0  0  0  0  0  0  0
   -2.3688    1.4310    0.0000 C   0  0  0  0  0  0  0  0  0  0  0  0
   -2.8323    2.8576    0.0000 C   0  0  0  0  0  0  0  0  0  0  0  0
   -2.1513    4.1941    0.0000 C   0  0  0  0  0  0  0  0  0  0  0  0
  1  2  1  0
  2  3  1  0
  3  4  2  0
  4  5  1  0
  5  6  2  0
  6  7  1  0
  7  8  2  0
  8  9  1  0
  9 10  2  0
 10 11  1  0
 11 12  1  0
 12 13  1  0
 13  3  1  0
 10  6  1  0
M  END
>  <Title>  (747) 
idABCSgen8

$$$$

     RDKit          2D

 30 30  0  0  0  0  0  0  0  0999 V2000
    8.1986    0.0000    0.0000 C   0  0  0  0  0  0  0  0  0  0  0  0
    6.6986    0.0000    0.0000 C   0  0  0  0  0  0  0  0  0  0  0  0
    6.5306   -1.4906    0.0000 C   0  0  0  0  0  0  0  0  0  0  0  0
    6.0352   -2.9064    0.0000 C   0  0  0  0  0  0  0  0  0  0  0  0
    5.2371   -4.1765    0.0000 C   0  0  0  0  0  0  0  0  0  0  0  0
    4.1765   -5.2371    0.0000 C   0  0  0  0  0  0  0  0  0  0  0  0
    2.9064   -6.0352    0.0000 C   0  0  0  0  0  0  0  0  0  0  0  0
    3.5572   -7.3866    0.0000 F   0  0  0  0  0  0  0  0  0  0  0  0
    1.4906   -6.5306    0.0000 C   0  0  0  0  0  0  0  0  0  0  0  0
   -0.0000   -6.6986    0.0000 C   0  0  0  0  0  0  0  0  0  0  0  0
   -1.4906   -6.5306    0.0000 C   0  0  0  0  0  0  0  0  0  0  0  0
   -2.9064   -6.0352    0.0000 C   0  0  0  0  0  0  0  0  0  0  0  0
   -4.1765   -5.2371    0.0000 C   0  0  0  0  0  0  0  0  0  0  0  0
   -5.2371   -4.1765    0.0000 C   0  0  0  0  0  0  0  0  0  0  0  0
   -6.0352   -2.9064    0.0000 C   0  0  0  0  0  0  0  0  0  0  0  0
   -6.5306   -1.4906    0.0000 C   0  0  0  0  0  0  0  0  0  0  0  0
   -6.6986    0.0000    0.0000 C   0  0  0  0  0  0  0  0  0  0  0  0
   -6.5306    1.4906    0.0000 C   0  0  0  0  0  0  0  0  0  0  0  0
   -6.0352    2.9064    0.0000 C   0  0  0  0  0  0  0  0  0  0  0  0
   -5.2371    4.1765    0.0000 C   0  0  0  0  0  0  0  0  0  0  0  0
   -4.1765    5.2371    0.0000 C   0  0  0  0  0  0  0  0  0  0  0  0
   -2.9064    6.0352    0.0000 C   0  0  0  0  0  0  0  0  0  0  0  0
   -1.4906    6.5306    0.0000 C   0  0  0  0  0  0  0  0  0  0  0  0
    0.0000    6.6986    0.0000 C   0  0  0  0  0  0  0  0  0  0  0  0
    1.4906    6.5306    0.0000 C   0  0  0  0  0  0  0  0  0  0  0  0
    2.9064    6.0352    0.0000 C   0  0  0  0  0  0  0  0  0  0  0  0
    4.1765    5.2371    0.0000 C   0  0  0  0  0  0  0  0  0  0  0  0
    5.2371    4.1765    0.0000 C   0  0  0  0  0  0  0  0  0  0  0  0
    6.0352    2.9064    0.0000 C   0  0  0  0  0  0  0  0  0  0  0  0
    6.5306    1.4906    0.0000 C   0  0  0  0  0  0  0  0  0  0  0  0
  1  2  1  0
  2  3  2  0
  3  4  1  0
  4  5  2  0
  5  6  1  0
  6  7  2  0
  7  8  1  0
  7  9  1  0
  9 10  2  0
 10 11  1  0
 11 12  2  0
 12 13  1  0
 13 14  2  0
 14 15  1  0
 15 16  2  0
 16 17  1  0
 17 18  2  0
 18 19  1  0
 19 20  2  0
 20 21  1  0
 21 22  2  0
 22 23  1  0
 23 24  2  0
 24 25  1  0
 25 26  2  0
 26 27  1  0
 27 28  2  0
 28 29  1  0
 29 30  2  0
 30  2  1  0
M  END
>  <Title>  (748) 
idABCTgen8

$$$$

     RDKit          2D

 18 19  0  0  0  0  0  0  0  0999 V2000
    3.8409    5.3580    0.0000 C   0  0  0  0  0  0  0  0  0  0  0  0
    2.5043    6.0390    0.0000 O   0  0  0  0  0  0  0  0  0  0  0  0
    1.2463    5.2220    0.0000 C   0  0  0  0  0  0  0  0  0  0  0  0
    1.7099    3.7955    0.0000 C   0  0  0  0  0  0  0  0  0  0  0  0
    1.3980    2.3282    0.0000 C   0  0  0  0  0  0  0  0  0  0  0  0
    0.3943    1.2135    0.0000 C   0  0  0  0  0  0  0  0  0  0  0  0
    1.2760    0.0000    0.0000 C   0  0  0  0  0  0  0  0  0  0  0  0
    0.3943   -1.2135    0.0000 C   0  0  0  0  0  0  0  0  0  0  0  0
   -1.0323   -0.7500    0.0000 C   0  0  0  0  0  0  0  0  0  0  0  0
   -1.0323    0.7500    0.0000 C   0  0  0  0  0  0  0  0  0  0  0  0
   -2.4995    1.0619    0.0000 C   0  0  0  0  0  0  0  0  0  0  0  0
   -3.6142    2.0656    0.0000 C   0  0  0  0  0  0  0  0  0  0  0  0
   -4.0778    3.4921    0.0000 C   0  0  0  0  0  0  0  0  0  0  0  0
   -3.7659    4.9594    0.0000 C   0  0  0  0  0  0  0  0  0  0  0  0
   -2.7622    6.0741    0.0000 C   0  0  0  0  0  0  0  0  0  0  0  0
   -1.3356    6.5376    0.0000 C   0  0  0  0  0  0  0  0  0  0  0  0
    0.1316    6.2257    0.0000 C   0  0  0  0  0  0  0  0  0  0  0  0
    0.8126    7.5623    0.0000 O   0  0  0  0  0  0  0  0  0  0  0  0
  1  2  1  0
  2  3  1  0
  3  4  2  0
  4  5  1  0
  5  6  2  0
  6  7  1  0
  7  8  2  0
  8  9  1  0
  9 10  2  0
 10 11  1  0
 11 12  1  0
 12 13  2  0
 13 14  1  0
 14 15  2  0
 15 16  1  0
 16 17  2  0
 17 18  1  0
 17  3  1  0
 10  6  1  0
M  END
>  <Title>  (749) 
idABCUgen8

$$$$

     RDKit          2D

 45 50  0  0  0  0  0  0  0  0999 V2000
    4.9121   -1.2990    0.0000 C   0  0  0  0  0  0  0  0  0  0  0  0
    4.1621    0.0000    0.0000 O   0  0  0  0  0  0  0  0  0  0  0  0
    2.6621    0.0000    0.0000 C   0  0  0  0  0  0  0  0  0  0  0  0
    2.2395    1.4392    0.0000 C   0  0  0  0  0  0  0  0  0  0  0  0
    1.1059    2.4215    0.0000 C   0  0  0  0  0  0  0  0  0  0  0  0
   -0.3789    2.6350    0.0000 C   0  0  0  0  0  0  0  0  0  0  0  0
   -1.7433    2.0119    0.0000 C   0  0  0  0  0  0  0  0  0  0  0  0
   -2.5543    0.7500    0.0000 C   0  0  0  0  0  0  0  0  0  0  0  0
   -2.5543   -0.7500    0.0000 C   0  0  0  0  0  0  0  0  0  0  0  0
   -1.7433   -2.0119    0.0000 C   0  0  0  0  0  0  0  0  0  0  0  0
   -0.3789   -2.6350    0.0000 C   0  0  0  0  0  0  0  0  0  0  0  0
   -0.5923   -4.1197    0.0000 C   0  0  0  0  0  0  0  0  0  0  0  0
    0.5868   -5.0470    0.0000 O   0  0  0  0  0  0  0  0  0  0  0  0
   -1.9849   -4.6772    0.0000 N   0  0  0  0  0  0  0  0  0  0  0  0
   -2.1984   -6.1620    0.0000 C   0  0  0  0  0  0  0  0  0  0  0  0
   -1.1227   -7.2074    0.0000 N   0  0  0  0  0  0  0  0  0  0  0  0
   -1.7845   -8.5535    0.0000 N   0  0  0  0  0  0  0  0  0  0  0  0
   -3.2692   -8.3400    0.0000 N   0  0  0  0  0  0  0  0  0  0  0  0
   -3.5250   -6.8620    0.0000 N   0  0  0  0  0  0  0  0  0  0  0  0
   -4.8711   -6.2001    0.0000 C   0  0  0  0  0  0  0  0  0  0  0  0
   -4.9710   -4.7035    0.0000 C   0  0  0  0  0  0  0  0  0  0  0  0
   -6.3171   -4.0416    0.0000 C   0  0  0  0  0  0  0  0  0  0  0  0
   -7.5633   -4.8765    0.0000 C   0  0  0  0  0  0  0  0  0  0  0  0
   -8.9094   -4.2146    0.0000 C   0  0  0  0  0  0  0  0  0  0  0  0
  -10.0897   -5.1403    0.0000 C   0  0  0  0  0  0  0  0  0  0  0  0
  -11.5494   -4.7946    0.0000 C   0  0  0  0  0  0  0  0  0  0  0  0
  -12.1891   -3.4378    0.0000 N   0  0  0  0  0  0  0  0  0  0  0  0
  -11.5273   -2.0917    0.0000 N   0  0  0  0  0  0  0  0  0  0  0  0
  -10.0622   -1.7699    0.0000 N   0  0  0  0  0  0  0  0  0  0  0  0
   -8.8972   -2.7147    0.0000 N   0  0  0  0  0  0  0  0  0  0  0  0
   -7.5404   -2.0749    0.0000 C   0  0  0  0  0  0  0  0  0  0  0  0
   -6.2254   -2.7965    0.0000 N   0  0  0  0  0  0  0  0  0  0  0  0
   -5.1328   -1.7688    0.0000 N   0  0  0  0  0  0  0  0  0  0  0  0
   -5.7725   -0.4120    0.0000 N   0  0  0  0  0  0  0  0  0  0  0  0
   -7.2606   -0.6012    0.0000 N   0  0  0  0  0  0  0  0  0  0  0  0
   -8.2883    0.4914    0.0000 C   0  0  0  0  0  0  0  0  0  0  0  0
   -9.7484    0.1476    0.0000 C   0  0  0  0  0  0  0  0  0  0  0  0
  -10.7761    1.2403    0.0000 C   0  0  0  0  0  0  0  0  0  0  0  0
  -10.3437    2.6766    0.0000 C   0  0  0  0  0  0  0  0  0  0  0  0
   -8.8836    3.0203    0.0000 C   0  0  0  0  0  0  0  0  0  0  0  0
   -7.8559    1.9277    0.0000 C   0  0  0  0  0  0  0  0  0  0  0  0
   -7.4634   -6.3731    0.0000 C   0  0  0  0  0  0  0  0  0  0  0  0
   -6.1173   -7.0350    0.0000 C   0  0  0  0  0  0  0  0  0  0  0  0
    1.1059   -2.4215    0.0000 N   0  0  0  0  0  0  0  0  0  0  0  0
    2.2395   -1.4392    0.0000 C   0  0  0  0  0  0  0  0  0  0  0  0
  1  2  1  0
  2  3  1  0
  3  4  2  0
  4  5  1  0
  5  6  2  0
  6  7  2  0
  7  8  1  0
  8  9  2  0
  9 10  1  0
 10 11  2  0
 11 12  1  0
 12 13  2  0
 12 14  1  0
 14 15  1  0
 15 16  2  0
 16 17  1  0
 17 18  2  0
 18 19  1  0
 19 20  1  0
 20 21  2  0
 21 22  1  0
 22 23  2  0
 23 24  1  0
 24 25  2  0
 25 26  1  0
 26 27  2  0
 27 28  1  0
 28 29  2  0
 29 30  1  0
 30 31  1  0
 31 32  2  0
 32 33  1  0
 33 34  2  0
 34 35  1  0
 35 36  1  0
 36 37  2  0
 37 38  1  0
 38 39  2  0
 39 40  1  0
 40 41  2  0
 23 42  1  0
 42 43  2  0
 11 44  1  0
 44 45  2  0
 45  3  1  0
 19 15  1  0
 43 20  1  0
 30 24  1  0
 35 31  1  0
 41 36  1  0
M  END
>  <Title>  (750) 
idABCVgen8

$$$$

     RDKit          2D

 51 58  0  0  0  0  0  0  0  0999 V2000
   -2.0180   11.4711    0.0000 C   0  0  0  0  0  0  0  0  0  0  0  0
   -0.8045   10.5894    0.0000 C   0  0  0  0  0  0  0  0  0  0  0  0
   -1.0723    9.1135    0.0000 C   0  0  0  0  0  0  0  0  0  0  0  0
   -0.0854    7.9839    0.0000 C   0  0  0  0  0  0  0  0  0  0  0  0
    1.4131    8.0512    0.0000 C   0  0  0  0  0  0  0  0  0  0  0  0
    2.1239    6.7303    0.0000 C   0  0  0  0  0  0  0  0  0  0  0  0
    3.6103    6.5290    0.0000 N   0  0  0  0  0  0  0  0  0  0  0  0
    3.8781    5.0531    0.0000 N   0  0  0  0  0  0  0  0  0  0  0  0
    2.5573    4.3423    0.0000 N   0  0  0  0  0  0  0  0  0  0  0  0
    1.4731    5.3789    0.0000 N   0  0  0  0  0  0  0  0  0  0  0  0
   -0.0028    5.1110    0.0000 C   0  0  0  0  0  0  0  0  0  0  0  0
   -1.0870    6.1476    0.0000 C   0  0  0  0  0  0  0  0  0  0  0  0
   -2.4079    5.4368    0.0000 N   0  0  0  0  0  0  0  0  0  0  0  0
   -2.1401    3.9609    0.0000 C   0  0  0  0  0  0  0  0  0  0  0  0
   -0.6537    3.7596    0.0000 N   0  0  0  0  0  0  0  0  0  0  0  0
    0.0571    2.4387    0.0000 C   0  0  0  0  0  0  0  0  0  0  0  0
    1.5436    2.2373    0.0000 C   0  0  0  0  0  0  0  0  0  0  0  0
    1.8114    0.7614    0.0000 C   0  0  0  0  0  0  0  0  0  0  0  0
    0.4905    0.0506    0.0000 C   0  0  0  0  0  0  0  0  0  0  0  0
    0.2892   -1.4358    0.0000 C   0  0  0  0  0  0  0  0  0  0  0  0
   -1.0988   -2.0046    0.0000 C   0  0  0  0  0  0  0  0  0  0  0  0
   -1.3001   -3.4911    0.0000 C   0  0  0  0  0  0  0  0  0  0  0  0
   -0.1135   -4.4087    0.0000 C   0  0  0  0  0  0  0  0  0  0  0  0
    1.2744   -3.8398    0.0000 C   0  0  0  0  0  0  0  0  0  0  0  0
    1.4758   -2.3534    0.0000 C   0  0  0  0  0  0  0  0  0  0  0  0
    2.8637   -1.7846    0.0000 C   0  0  0  0  0  0  0  0  0  0  0  0
    3.2193   -0.3273    0.0000 N   0  0  0  0  0  0  0  0  0  0  0  0
    4.7151   -0.2152    0.0000 N   0  0  0  0  0  0  0  0  0  0  0  0
    5.2840   -1.6032    0.0000 N   0  0  0  0  0  0  0  0  0  0  0  0
    4.1397   -2.5731    0.0000 N   0  0  0  0  0  0  0  0  0  0  0  0
    4.2518   -4.0689    0.0000 C   0  0  0  0  0  0  0  0  0  0  0  0
    3.0125   -4.9139    0.0000 C   0  0  0  0  0  0  0  0  0  0  0  0
    3.1246   -6.4097    0.0000 C   0  0  0  0  0  0  0  0  0  0  0  0
    4.4760   -7.0605    0.0000 C   0  0  0  0  0  0  0  0  0  0  0  0
    5.7154   -6.2155    0.0000 C   0  0  0  0  0  0  0  0  0  0  0  0
    5.6033   -4.7197    0.0000 C   0  0  0  0  0  0  0  0  0  0  0  0
    6.8426   -3.8747    0.0000 C   0  0  0  0  0  0  0  0  0  0  0  0
    8.1941   -4.5256    0.0000 C   0  0  0  0  0  0  0  0  0  0  0  0
    9.4335   -3.6806    0.0000 C   0  0  0  0  0  0  0  0  0  0  0  0
    9.3214   -2.1848    0.0000 C   0  0  0  0  0  0  0  0  0  0  0  0
   10.5607   -1.3398    0.0000 C   0  0  0  0  0  0  0  0  0  0  0  0
   10.4486    0.1560    0.0000 O   0  0  0  0  0  0  0  0  0  0  0  0
   11.9122   -1.9906    0.0000 N   0  0  0  0  0  0  0  0  0  0  0  0
   13.1515   -1.1456    0.0000 O   0  0  0  0  0  0  0  0  0  0  0  0
    7.9699   -1.5339    0.0000 C   0  0  0  0  0  0  0  0  0  0  0  0
    6.7306   -2.3789    0.0000 C   0  0  0  0  0  0  0  0  0  0  0  0
   -0.5937    1.0872    0.0000 C   0  0  0  0  0  0  0  0  0  0  0  0
   -2.0696    0.8194    0.0000 O   0  0  0  0  0  0  0  0  0  0  0  0
    2.2948    9.2647    0.0000 N   0  0  0  0  0  0  0  0  0  0  0  0
    1.8957   10.7107    0.0000 C   0  0  0  0  0  0  0  0  0  0  0  0
    0.5164   11.3002    0.0000 C   0  0  0  0  0  0  0  0  0  0  0  0
  1  2  1  0
  2  3  2  0
  3  4  1  0
  4  5  2  0
  5  6  1  0
  6  7  2  0
  7  8  1  0
  8  9  2  0
  9 10  1  0
 10 11  1  0
 11 12  2  0
 12 13  1  0
 13 14  2  0
 14 15  1  0
 15 16  1  0
 16 17  2  0
 17 18  1  0
 18 19  2  0
 19 20  1  0
 20 21  2  0
 21 22  1  0
 22 23  2  0
 23 24  1  0
 24 25  2  0
 25 26  1  0
 26 27  2  0
 27 28  1  0
 28 29  2  0
 29 30  1  0
 30 31  1  0
 31 32  2  0
 32 33  1  0
 33 34  2  0
 34 35  1  0
 35 36  2  0
 36 37  1  0
 37 38  2  0
 38 39  1  0
 39 40  2  0
 40 41  1  0
 41 42  2  0
 41 43  1  0
 43 44  1  0
 40 45  1  0
 45 46  1  0
 19 47  1  0
 47 48  2  0
  5 49  1  0
 49 50  1  0
 50 51  1  0
 51  2  1  0
 10  6  1  0
 15 11  1  0
 47 16  1  0
 25 20  1  0
 30 26  1  0
 36 31  1  0
 46 37  1  0
M  END
>  <Title>  (751) 
idABCWgen8

$$$$

     RDKit          2D

 26 26  0  0  0  0  0  0  0  0999 V2000
    7.2460    0.0000    0.0000 C   0  0  0  0  0  0  0  0  0  0  0  0
    5.7460    0.0000    0.0000 C   0  0  0  0  0  0  0  0  0  0  0  0
    5.5502   -1.4872    0.0000 C   0  0  0  0  0  0  0  0  0  0  0  0
    4.9762   -2.8730    0.0000 C   0  0  0  0  0  0  0  0  0  0  0  0
    4.0630   -4.0630    0.0000 C   0  0  0  0  0  0  0  0  0  0  0  0
    2.8730   -4.9762    0.0000 C   0  0  0  0  0  0  0  0  0  0  0  0
    1.4872   -5.5502    0.0000 C   0  0  0  0  0  0  0  0  0  0  0  0
   -0.0000   -5.7460    0.0000 C   0  0  0  0  0  0  0  0  0  0  0  0
   -1.4872   -5.5502    0.0000 C   0  0  0  0  0  0  0  0  0  0  0  0
   -2.8730   -4.9762    0.0000 C   0  0  0  0  0  0  0  0  0  0  0  0
   -4.0630   -4.0630    0.0000 C   0  0  0  0  0  0  0  0  0  0  0  0
   -4.9762   -2.8730    0.0000 C   0  0  0  0  0  0  0  0  0  0  0  0
   -5.5502   -1.4872    0.0000 C   0  0  0  0  0  0  0  0  0  0  0  0
   -5.7460    0.0000    0.0000 C   0  0  0  0  0  0  0  0  0  0  0  0
   -5.5502    1.4872    0.0000 C   0  0  0  0  0  0  0  0  0  0  0  0
   -4.9762    2.8730    0.0000 C   0  0  0  0  0  0  0  0  0  0  0  0
   -4.0630    4.0630    0.0000 C   0  0  0  0  0  0  0  0  0  0  0  0
   -2.8730    4.9762    0.0000 C   0  0  0  0  0  0  0  0  0  0  0  0
   -1.4872    5.5502    0.0000 C   0  0  0  0  0  0  0  0  0  0  0  0
    0.0000    5.7460    0.0000 C   0  0  0  0  0  0  0  0  0  0  0  0
    1.4872    5.5502    0.0000 C   0  0  0  0  0  0  0  0  0  0  0  0
    2.8730    4.9762    0.0000 C   0  0  0  0  0  0  0  0  0  0  0  0
    4.0630    4.0630    0.0000 C   0  0  0  0  0  0  0  0  0  0  0  0
    5.1237    5.1237    0.0000 O   0  0  0  0  0  0  0  0  0  0  0  0
    4.9762    2.8730    0.0000 C   0  0  0  0  0  0  0  0  0  0  0  0
    5.5502    1.4872    0.0000 C   0  0  0  0  0  0  0  0  0  0  0  0
  1  2  1  0
  2  3  2  0
  3  4  1  0
  4  5  2  0
  5  6  1  0
  6  7  2  0
  7  8  1  0
  8  9  2  0
  9 10  1  0
 10 11  2  0
 11 12  1  0
 12 13  2  0
 13 14  1  0
 14 15  2  0
 15 16  1  0
 16 17  2  0
 17 18  1  0
 18 19  2  0
 19 20  1  0
 20 21  2  0
 21 22  1  0
 22 23  2  0
 23 24  1  0
 23 25  1  0
 25 26  2  0
 26  2  1  0
M  END
>  <Title>  (752) 
idABCXgen8

$$$$

     RDKit          2D

 25 25  0  0  0  0  0  0  0  0999 V2000
    6.7700    0.0000    0.0000 C   0  0  0  0  0  0  0  0  0  0  0  0
    5.2700    0.0000    0.0000 C   0  0  0  0  0  0  0  0  0  0  0  0
    5.0565   -1.4847    0.0000 C   0  0  0  0  0  0  0  0  0  0  0  0
    4.4334   -2.8492    0.0000 C   0  0  0  0  0  0  0  0  0  0  0  0
    3.4511   -3.9828    0.0000 C   0  0  0  0  0  0  0  0  0  0  0  0
    2.1892   -4.7938    0.0000 C   0  0  0  0  0  0  0  0  0  0  0  0
    0.7500   -5.2164    0.0000 C   0  0  0  0  0  0  0  0  0  0  0  0
    0.9635   -6.7011    0.0000 F   0  0  0  0  0  0  0  0  0  0  0  0
   -0.7500   -5.2164    0.0000 C   0  0  0  0  0  0  0  0  0  0  0  0
   -2.1892   -4.7938    0.0000 C   0  0  0  0  0  0  0  0  0  0  0  0
   -3.4511   -3.9828    0.0000 C   0  0  0  0  0  0  0  0  0  0  0  0
   -4.4334   -2.8492    0.0000 C   0  0  0  0  0  0  0  0  0  0  0  0
   -5.0565   -1.4847    0.0000 C   0  0  0  0  0  0  0  0  0  0  0  0
   -5.2700    0.0000    0.0000 C   0  0  0  0  0  0  0  0  0  0  0  0
   -5.0565    1.4847    0.0000 C   0  0  0  0  0  0  0  0  0  0  0  0
   -4.4334    2.8492    0.0000 C   0  0  0  0  0  0  0  0  0  0  0  0
   -3.4511    3.9828    0.0000 C   0  0  0  0  0  0  0  0  0  0  0  0
   -2.1892    4.7938    0.0000 C   0  0  0  0  0  0  0  0  0  0  0  0
   -0.7500    5.2164    0.0000 C   0  0  0  0  0  0  0  0  0  0  0  0
    0.7500    5.2164    0.0000 C   0  0  0  0  0  0  0  0  0  0  0  0
    2.1892    4.7938    0.0000 C   0  0  0  0  0  0  0  0  0  0  0  0
    3.4511    3.9828    0.0000 C   0  0  0  0  0  0  0  0  0  0  0  0
    4.4334    2.8492    0.0000 C   0  0  0  0  0  0  0  0  0  0  0  0
    5.0565    1.4847    0.0000 C   0  0  0  0  0  0  0  0  0  0  0  0
    6.4958    1.9073    0.0000 O   0  0  0  0  0  0  0  0  0  0  0  0
  1  2  1  0
  2  3  2  0
  3  4  1  0
  4  5  2  0
  5  6  1  0
  6  7  2  0
  7  8  1  0
  7  9  1  0
  9 10  2  0
 10 11  1  0
 11 12  2  0
 12 13  1  0
 13 14  2  0
 14 15  1  0
 15 16  2  0
 16 17  1  0
 17 18  2  0
 18 19  1  0
 19 20  2  0
 20 21  1  0
 21 22  2  0
 22 23  1  0
 23 24  2  0
 24 25  1  0
 24  2  1  0
M  END
>  <Title>  (753) 
idABCYgen8

$$$$

     RDKit          2D

  8  8  0  0  0  0  0  0  0  0999 V2000
    3.7500   -1.2990    0.0000 O   0  0  0  0  0  0  0  0  0  0  0  0
    3.0000    0.0000    0.0000 C   0  0  0  0  0  0  0  0  0  0  0  0
    1.5000    0.0000    0.0000 C   0  0  0  0  0  0  0  0  0  0  0  0
    0.7500   -1.2990    0.0000 C   0  0  0  0  0  0  0  0  0  0  0  0
   -0.7500   -1.2990    0.0000 C   0  0  0  0  0  0  0  0  0  0  0  0
   -1.5000    0.0000    0.0000 C   0  0  0  0  0  0  0  0  0  0  0  0
   -0.7500    1.2990    0.0000 C   0  0  0  0  0  0  0  0  0  0  0  0
    0.7500    1.2990    0.0000 C   0  0  0  0  0  0  0  0  0  0  0  0
  1  2  1  0
  2  3  1  0
  3  4  1  0
  4  5  1  0
  5  6  1  0
  6  7  1  0
  7  8  1  0
  8  3  1  0
M  END
>  <Title>  (754) 
idABCZgen8

$$$$

     RDKit          2D

 17 18  0  0  0  0  0  0  0  0999 V2000
   -2.5081   -8.6168    0.0000 C   0  0  0  0  0  0  0  0  0  0  0  0
   -1.0409   -8.3049    0.0000 C   0  0  0  0  0  0  0  0  0  0  0  0
   -0.0372   -9.4196    0.0000 O   0  0  0  0  0  0  0  0  0  0  0  0
   -0.5773   -6.8783    0.0000 O   0  0  0  0  0  0  0  0  0  0  0  0
    0.8899   -6.5665    0.0000 C   0  0  0  0  0  0  0  0  0  0  0  0
    2.0046   -7.5702    0.0000 N   0  0  0  0  0  0  0  0  0  0  0  0
    3.3037   -6.8202    0.0000 N   0  0  0  0  0  0  0  0  0  0  0  0
    2.9918   -5.3529    0.0000 N   0  0  0  0  0  0  0  0  0  0  0  0
    1.5000   -5.1962    0.0000 N   0  0  0  0  0  0  0  0  0  0  0  0
    0.7500   -3.8971    0.0000 C   0  0  0  0  0  0  0  0  0  0  0  0
    1.5000   -2.5981    0.0000 C   0  0  0  0  0  0  0  0  0  0  0  0
    0.7500   -1.2990    0.0000 C   0  0  0  0  0  0  0  0  0  0  0  0
    1.5000    0.0000    0.0000 C   0  0  0  0  0  0  0  0  0  0  0  0
    0.7500    1.2990    0.0000 C   0  0  0  0  0  0  0  0  0  0  0  0
   -0.7500    1.2990    0.0000 C   0  0  0  0  0  0  0  0  0  0  0  0
   -1.5000    0.0000    0.0000 C   0  0  0  0  0  0  0  0  0  0  0  0
   -0.7500   -1.2990    0.0000 C   0  0  0  0  0  0  0  0  0  0  0  0
  1  2  1  0
  2  3  2  0
  2  4  1  0
  4  5  1  0
  5  6  2  0
  6  7  1  0
  7  8  2  0
  8  9  1  0
  9 10  1  0
 10 11  1  0
 11 12  1  0
 12 13  2  0
 13 14  1  0
 14 15  2  0
 15 16  1  0
 16 17  2  0
  9  5  1  0
 17 12  1  0
M  END
>  <Title>  (755) 
idABDAgen8

$$$$

     RDKit          2D

 43 49  0  0  0  0  0  0  0  0999 V2000
    5.8997    8.1185    0.0000 C   0  0  0  0  0  0  0  0  0  0  0  0
    4.4508    8.5067    0.0000 C   0  0  0  0  0  0  0  0  0  0  0  0
    4.0626    9.9556    0.0000 C   0  0  0  0  0  0  0  0  0  0  0  0
    2.6137   10.3438    0.0000 C   0  0  0  0  0  0  0  0  0  0  0  0
    1.5530    9.2831    0.0000 C   0  0  0  0  0  0  0  0  0  0  0  0
    0.1041    9.6714    0.0000 C   0  0  0  0  0  0  0  0  0  0  0  0
   -0.4334   11.0717    0.0000 N   0  0  0  0  0  0  0  0  0  0  0  0
   -1.9314   10.9932    0.0000 N   0  0  0  0  0  0  0  0  0  0  0  0
   -2.3196    9.5443    0.0000 N   0  0  0  0  0  0  0  0  0  0  0  0
   -1.0616    8.7274    0.0000 N   0  0  0  0  0  0  0  0  0  0  0  0
   -0.9831    7.2294    0.0000 C   0  0  0  0  0  0  0  0  0  0  0  0
   -2.4097    6.7659    0.0000 C   0  0  0  0  0  0  0  0  0  0  0  0
   -3.4134    5.6512    0.0000 C   0  0  0  0  0  0  0  0  0  0  0  0
   -4.7499    6.3322    0.0000 C   0  0  0  0  0  0  0  0  0  0  0  0
   -6.0079    5.5152    0.0000 C   0  0  0  0  0  0  0  0  0  0  0  0
   -6.0864    4.0173    0.0000 N   0  0  0  0  0  0  0  0  0  0  0  0
   -7.5353    3.6291    0.0000 N   0  0  0  0  0  0  0  0  0  0  0  0
   -8.3522    4.8871    0.0000 N   0  0  0  0  0  0  0  0  0  0  0  0
   -7.4083    6.0528    0.0000 N   0  0  0  0  0  0  0  0  0  0  0  0
   -7.7965    7.5017    0.0000 C   0  0  0  0  0  0  0  0  0  0  0  0
   -6.7358    8.5623    0.0000 C   0  0  0  0  0  0  0  0  0  0  0  0
   -7.1241   10.0112    0.0000 C   0  0  0  0  0  0  0  0  0  0  0  0
   -8.5730   10.3994    0.0000 C   0  0  0  0  0  0  0  0  0  0  0  0
   -9.6336    9.3388    0.0000 C   0  0  0  0  0  0  0  0  0  0  0  0
   -9.2454    7.8899    0.0000 C   0  0  0  0  0  0  0  0  0  0  0  0
   -3.7252    4.1840    0.0000 C   0  0  0  0  0  0  0  0  0  0  0  0
   -3.2617    2.7574    0.0000 C   0  0  0  0  0  0  0  0  0  0  0  0
   -2.1470    1.7537    0.0000 C   0  0  0  0  0  0  0  0  0  0  0  0
   -1.8351    3.2209    0.0000 C   0  0  0  0  0  0  0  0  0  0  0  0
   -2.6739    4.4645    0.0000 O   0  0  0  0  0  0  0  0  0  0  0  0
   -0.4086    3.6844    0.0000 O   0  0  0  0  0  0  0  0  0  0  0  0
    0.7062    2.6807    0.0000 C   0  0  0  0  0  0  0  0  0  0  0  0
    0.3943    1.2135    0.0000 C   0  0  0  0  0  0  0  0  0  0  0  0
    1.2760    0.0000    0.0000 N   0  0  0  0  0  0  0  0  0  0  0  0
    0.3943   -1.2135    0.0000 N   0  0  0  0  0  0  0  0  0  0  0  0
   -1.0323   -0.7500    0.0000 N   0  0  0  0  0  0  0  0  0  0  0  0
   -1.0323    0.7500    0.0000 N   0  0  0  0  0  0  0  0  0  0  0  0
    2.0624    4.4873    0.0000 C   0  0  0  0  0  0  0  0  0  0  0  0
    1.5988    5.9139    0.0000 C   0  0  0  0  0  0  0  0  0  0  0  0
    0.4841    6.9176    0.0000 O   0  0  0  0  0  0  0  0  0  0  0  0
    1.9412    7.8342    0.0000 N   0  0  0  0  0  0  0  0  0  0  0  0
    3.3901    7.4460    0.0000 C   0  0  0  0  0  0  0  0  0  0  0  0
    3.7784    5.9971    0.0000 O   0  0  0  0  0  0  0  0  0  0  0  0
  1  2  1  0
  2  3  2  0
  3  4  1  0
  4  5  2  0
  5  6  1  0
  6  7  2  0
  7  8  1  0
  8  9  2  0
  9 10  1  0
 10 11  1  0
 11 12  1  0
 12 13  1  0
 13 14  1  0
 14 15  1  0
 15 16  2  0
 16 17  1  0
 17 18  2  0
 18 19  1  0
 19 20  1  0
 20 21  2  0
 21 22  1  0
 22 23  2  0
 23 24  1  0
 24 25  2  0
 13 26  2  0
 26 27  1  0
 27 28  2  0
 28 29  1  0
 29 30  2  0
 29 31  1  0
 31 32  1  0
 32 33  1  0
 33 34  2  0
 34 35  1  0
 35 36  2  0
 36 37  1  0
 32 38  2  0
 38 39  1  0
 39 40  1  0
  5 41  1  0
 41 42  1  0
 42 43  2  0
 42  2  1  0
 10  6  1  0
 40 11  1  0
 19 15  1  0
 25 20  1  0
 37 28  1  0
 37 33  1  0
M  END
>  <Title>  (756) 
idABDBgen8

$$$$

     RDKit          2D

 35 39  0  0  0  0  0  0  0  0999 V2000
    3.2286   -0.0000    0.0000 C   0  0  0  0  0  0  0  0  0  0  0  0
    1.7286    0.0000    0.0000 C   0  0  0  0  0  0  0  0  0  0  0  0
    1.0777    1.3515    0.0000 C   0  0  0  0  0  0  0  0  0  0  0  0
   -0.3846    1.6852    0.0000 C   0  0  0  0  0  0  0  0  0  0  0  0
   -1.5574    0.7500    0.0000 C   0  0  0  0  0  0  0  0  0  0  0  0
   -2.9088    1.4008    0.0000 N   0  0  0  0  0  0  0  0  0  0  0  0
   -3.0209    2.8966    0.0000 N   0  0  0  0  0  0  0  0  0  0  0  0
   -4.3724    3.5475    0.0000 N   0  0  0  0  0  0  0  0  0  0  0  0
   -5.6118    2.7025    0.0000 N   0  0  0  0  0  0  0  0  0  0  0  0
   -5.4997    1.2067    0.0000 N   0  0  0  0  0  0  0  0  0  0  0  0
   -4.1482    0.5558    0.0000 N   0  0  0  0  0  0  0  0  0  0  0  0
   -4.0361   -0.9400    0.0000 C   0  0  0  0  0  0  0  0  0  0  0  0
   -5.2755   -1.7849    0.0000 C   0  0  0  0  0  0  0  0  0  0  0  0
   -5.1634   -3.2807    0.0000 C   0  0  0  0  0  0  0  0  0  0  0  0
   -3.8119   -3.9316    0.0000 C   0  0  0  0  0  0  0  0  0  0  0  0
   -3.6998   -5.4274    0.0000 C   0  0  0  0  0  0  0  0  0  0  0  0
   -2.4238   -6.2159    0.0000 N   0  0  0  0  0  0  0  0  0  0  0  0
   -2.7794   -7.6731    0.0000 N   0  0  0  0  0  0  0  0  0  0  0  0
   -4.2752   -7.7852    0.0000 N   0  0  0  0  0  0  0  0  0  0  0  0
   -4.8441   -6.3973    0.0000 N   0  0  0  0  0  0  0  0  0  0  0  0
   -6.3013   -6.0417    0.0000 C   0  0  0  0  0  0  0  0  0  0  0  0
   -6.7219   -4.6018    0.0000 C   0  0  0  0  0  0  0  0  0  0  0  0
   -8.1792   -4.2462    0.0000 C   0  0  0  0  0  0  0  0  0  0  0  0
   -9.2158   -5.3304    0.0000 C   0  0  0  0  0  0  0  0  0  0  0  0
  -10.6730   -4.9748    0.0000 C   0  0  0  0  0  0  0  0  0  0  0  0
  -11.7096   -6.0590    0.0000 O   0  0  0  0  0  0  0  0  0  0  0  0
  -11.0936   -3.5350    0.0000 N   0  0  0  0  0  0  0  0  0  0  0  0
  -12.5509   -3.1794    0.0000 O   0  0  0  0  0  0  0  0  0  0  0  0
   -8.7951   -6.7702    0.0000 C   0  0  0  0  0  0  0  0  0  0  0  0
   -7.3379   -7.1258    0.0000 C   0  0  0  0  0  0  0  0  0  0  0  0
   -2.5726   -3.0866    0.0000 C   0  0  0  0  0  0  0  0  0  0  0  0
   -2.6847   -1.5908    0.0000 C   0  0  0  0  0  0  0  0  0  0  0  0
   -1.5574   -0.7500    0.0000 N   0  0  0  0  0  0  0  0  0  0  0  0
   -0.3846   -1.6852    0.0000 N   0  0  0  0  0  0  0  0  0  0  0  0
    1.0777   -1.3515    0.0000 N   0  0  0  0  0  0  0  0  0  0  0  0
  1  2  1  0
  2  3  2  0
  3  4  1  0
  4  5  2  0
  5  6  1  0
  6  7  1  0
  7  8  2  0
  8  9  1  0
  9 10  2  0
 10 11  1  0
 11 12  1  0
 12 13  2  0
 13 14  1  0
 14 15  2  0
 15 16  1  0
 16 17  2  0
 17 18  1  0
 18 19  2  0
 19 20  1  0
 20 21  1  0
 21 22  2  0
 22 23  1  0
 23 24  2  0
 24 25  1  0
 25 26  2  0
 25 27  1  0
 27 28  1  0
 24 29  1  0
 29 30  1  0
 15 31  1  0
 31 32  2  0
  5 33  1  0
 33 34  2  0
 34 35  1  0
 35  2  1  0
 11  6  1  0
 32 12  1  0
 20 16  1  0
 30 21  1  0
M  END
>  <Title>  (757) 
idABDCgen8

$$$$

     RDKit          2D

 47 54  0  0  0  0  0  0  0  0999 V2000
  -12.4862   -1.4136    0.0000 C   0  0  0  0  0  0  0  0  0  0  0  0
  -11.9487   -0.0132    0.0000 C   0  0  0  0  0  0  0  0  0  0  0  0
  -12.8927    1.1525    0.0000 C   0  0  0  0  0  0  0  0  0  0  0  0
  -12.3551    2.5528    0.0000 C   0  0  0  0  0  0  0  0  0  0  0  0
  -10.8736    2.7875    0.0000 C   0  0  0  0  0  0  0  0  0  0  0  0
  -10.3360    4.1879    0.0000 C   0  0  0  0  0  0  0  0  0  0  0  0
  -11.1530    5.4459    0.0000 N   0  0  0  0  0  0  0  0  0  0  0  0
  -10.2090    6.6116    0.0000 N   0  0  0  0  0  0  0  0  0  0  0  0
   -8.8086    6.0740    0.0000 N   0  0  0  0  0  0  0  0  0  0  0  0
   -8.8871    4.5761    0.0000 N   0  0  0  0  0  0  0  0  0  0  0  0
   -7.7214    3.6321    0.0000 C   0  0  0  0  0  0  0  0  0  0  0  0
   -7.9561    2.1506    0.0000 C   0  0  0  0  0  0  0  0  0  0  0  0
   -6.7904    1.2066    0.0000 C   0  0  0  0  0  0  0  0  0  0  0  0
   -5.3900    1.7442    0.0000 C   0  0  0  0  0  0  0  0  0  0  0  0
   -5.1553    3.2257    0.0000 N   0  0  0  0  0  0  0  0  0  0  0  0
   -6.3211    4.1697    0.0000 C   0  0  0  0  0  0  0  0  0  0  0  0
   -6.0864    5.6512    0.0000 C   0  0  0  0  0  0  0  0  0  0  0  0
   -7.1471    6.7119    0.0000 C   0  0  0  0  0  0  0  0  0  0  0  0
   -6.4661    8.0484    0.0000 N   0  0  0  0  0  0  0  0  0  0  0  0
   -4.9845    7.8137    0.0000 N   0  0  0  0  0  0  0  0  0  0  0  0
   -4.7499    6.3322    0.0000 N   0  0  0  0  0  0  0  0  0  0  0  0
   -3.4134    5.6512    0.0000 C   0  0  0  0  0  0  0  0  0  0  0  0
   -3.7252    4.1840    0.0000 C   0  0  0  0  0  0  0  0  0  0  0  0
   -3.2617    2.7574    0.0000 C   0  0  0  0  0  0  0  0  0  0  0  0
   -2.1470    1.7537    0.0000 C   0  0  0  0  0  0  0  0  0  0  0  0
   -1.8351    3.2209    0.0000 C   0  0  0  0  0  0  0  0  0  0  0  0
   -0.4086    3.6844    0.0000 C   0  0  0  0  0  0  0  0  0  0  0  0
   -0.0967    5.1517    0.0000 O   0  0  0  0  0  0  0  0  0  0  0  0
    0.7062    2.6807    0.0000 C   0  0  0  0  0  0  0  0  0  0  0  0
    2.0624    4.4873    0.0000 C   0  0  0  0  0  0  0  0  0  0  0  0
    1.5988    5.9139    0.0000 C   0  0  0  0  0  0  0  0  0  0  0  0
    0.4841    6.9176    0.0000 C   0  0  0  0  0  0  0  0  0  0  0  0
    1.1651    8.2541    0.0000 C   0  0  0  0  0  0  0  0  0  0  0  0
    2.6631    8.3326    0.0000 C   0  0  0  0  0  0  0  0  0  0  0  0
    3.3440    9.6691    0.0000 C   0  0  0  0  0  0  0  0  0  0  0  0
    2.5271   10.9271    0.0000 C   0  0  0  0  0  0  0  0  0  0  0  0
    1.0291   10.8486    0.0000 C   0  0  0  0  0  0  0  0  0  0  0  0
    0.3482    9.5121    0.0000 C   0  0  0  0  0  0  0  0  0  0  0  0
   -0.9831    7.2294    0.0000 C   0  0  0  0  0  0  0  0  0  0  0  0
   -2.4097    6.7659    0.0000 C   0  0  0  0  0  0  0  0  0  0  0  0
    0.3943    1.2135    0.0000 N   0  0  0  0  0  0  0  0  0  0  0  0
    1.2760    0.0000    0.0000 N   0  0  0  0  0  0  0  0  0  0  0  0
    0.3943   -1.2135    0.0000 N   0  0  0  0  0  0  0  0  0  0  0  0
   -1.0323   -0.7500    0.0000 N   0  0  0  0  0  0  0  0  0  0  0  0
   -1.0323    0.7500    0.0000 C   0  0  0  0  0  0  0  0  0  0  0  0
   -9.9296    1.6218    0.0000 N   0  0  0  0  0  0  0  0  0  0  0  0
  -10.4672    0.2214    0.0000 C   0  0  0  0  0  0  0  0  0  0  0  0
  1  2  1  0
  2  3  2  0
  3  4  1  0
  4  5  2  0
  5  6  1  0
  6  7  2  0
  7  8  1  0
  8  9  2  0
  9 10  1  0
 10 11  1  0
 11 12  1  0
 12 13  1  0
 13 14  1  0
 14 15  1  0
 15 16  1  0
 16 17  1  0
 17 18  2  0
 18 19  1  0
 19 20  2  0
 20 21  1  0
 21 22  1  0
 22 23  2  0
 23 24  1  0
 24 25  2  0
 25 26  1  0
 26 27  2  0
 27 28  1  0
 27 29  1  0
 29 30  2  0
 30 31  1  0
 31 32  2  0
 32 33  1  0
 33 34  2  0
 34 35  1  0
 35 36  2  0
 36 37  1  0
 37 38  2  0
 32 39  1  0
 39 40  2  0
 29 41  1  0
 41 42  1  0
 42 43  2  0
 43 44  1  0
 44 45  2  0
  5 46  1  0
 46 47  1  0
 47  2  1  0
 10  6  1  0
 16 11  1  0
 21 17  1  0
 40 22  1  0
 45 41  1  0
 45 25  1  0
 38 33  1  0
M  END
>  <Title>  (758) 
idABDDgen8

$$$$

     RDKit          2D

 64 73  0  0  0  0  0  0  0  0999 V2000
   -1.3240  -10.9227    0.0000 C   0  0  0  0  0  0  0  0  0  0  0  0
   -0.7500   -9.5369    0.0000 C   0  0  0  0  0  0  0  0  0  0  0  0
    0.7500   -9.5369    0.0000 C   0  0  0  0  0  0  0  0  0  0  0  0
    1.8107   -8.4762    0.0000 C   0  0  0  0  0  0  0  0  0  0  0  0
    1.8107   -6.9762    0.0000 C   0  0  0  0  0  0  0  0  0  0  0  0
    3.1965   -6.4022    0.0000 C   0  0  0  0  0  0  0  0  0  0  0  0
    4.3865   -7.3153    0.0000 C   0  0  0  0  0  0  0  0  0  0  0  0
    5.7723   -6.7413    0.0000 C   0  0  0  0  0  0  0  0  0  0  0  0
    6.1225   -5.2828    0.0000 N   0  0  0  0  0  0  0  0  0  0  0  0
    7.6179   -5.1651    0.0000 N   0  0  0  0  0  0  0  0  0  0  0  0
    8.1919   -6.5509    0.0000 N   0  0  0  0  0  0  0  0  0  0  0  0
    7.0513   -7.5251    0.0000 N   0  0  0  0  0  0  0  0  0  0  0  0
    7.1690   -9.0204    0.0000 C   0  0  0  0  0  0  0  0  0  0  0  0
    8.4479   -9.8042    0.0000 C   0  0  0  0  0  0  0  0  0  0  0  0
    8.0978  -11.2627    0.0000 C   0  0  0  0  0  0  0  0  0  0  0  0
    6.6024  -11.3804    0.0000 C   0  0  0  0  0  0  0  0  0  0  0  0
    5.8186  -12.6594    0.0000 C   0  0  0  0  0  0  0  0  0  0  0  0
    4.3233  -12.7771    0.0000 N   0  0  0  0  0  0  0  0  0  0  0  0
    3.9731  -14.2356    0.0000 N   0  0  0  0  0  0  0  0  0  0  0  0
    5.2521  -15.0194    0.0000 N   0  0  0  0  0  0  0  0  0  0  0  0
    6.3927  -14.0452    0.0000 N   0  0  0  0  0  0  0  0  0  0  0  0
    7.8512  -14.3954    0.0000 C   0  0  0  0  0  0  0  0  0  0  0  0
    8.7996  -13.2332    0.0000 C   0  0  0  0  0  0  0  0  0  0  0  0
   10.2995  -13.2500    0.0000 C   0  0  0  0  0  0  0  0  0  0  0  0
   11.2215  -14.4332    0.0000 C   0  0  0  0  0  0  0  0  0  0  0  0
    9.3657  -15.4149    0.0000 C   0  0  0  0  0  0  0  0  0  0  0  0
    9.1683  -14.0305    0.0000 O   0  0  0  0  0  0  0  0  0  0  0  0
    7.9944  -16.9534    0.0000 N   0  0  0  0  0  0  0  0  0  0  0  0
    5.4227  -19.8509    0.0000 C   0  0  0  0  0  0  0  0  0  0  0  0
    6.5247  -20.8685    0.0000 C   0  0  0  0  0  0  0  0  0  0  0  0
    8.0020  -21.1288    0.0000 N   0  0  0  0  0  0  0  0  0  0  0  0
    9.3854  -20.5491    0.0000 N   0  0  0  0  0  0  0  0  0  0  0  0
   10.2359  -19.3135    0.0000 C   0  0  0  0  0  0  0  0  0  0  0  0
   10.2833  -17.8143    0.0000 C   0  0  0  0  0  0  0  0  0  0  0  0
    9.5126  -16.5274    0.0000 C   0  0  0  0  0  0  0  0  0  0  0  0
   10.8713  -15.8917    0.0000 C   0  0  0  0  0  0  0  0  0  0  0  0
   12.0335  -16.8401    0.0000 O   0  0  0  0  0  0  0  0  0  0  0  0
    8.1686  -15.8614    0.0000 N   0  0  0  0  0  0  0  0  0  0  0  0
    6.6778  -16.0278    0.0000 N   0  0  0  0  0  0  0  0  0  0  0  0
    5.5137  -16.9738    0.0000 N   0  0  0  0  0  0  0  0  0  0  0  0
    5.0458  -18.3990    0.0000 N   0  0  0  0  0  0  0  0  0  0  0  0
    6.0284   -9.9946    0.0000 C   0  0  0  0  0  0  0  0  0  0  0  0
    4.5698   -9.6444    0.0000 O   0  0  0  0  0  0  0  0  0  0  0  0
    0.7500   -5.9156    0.0000 C   0  0  0  0  0  0  0  0  0  0  0  0
    1.9635   -5.0339    0.0000 C   0  0  0  0  0  0  0  0  0  0  0  0
    2.4271   -3.6073    0.0000 C   0  0  0  0  0  0  0  0  0  0  0  0
    1.9635   -2.1807    0.0000 C   0  0  0  0  0  0  0  0  0  0  0  0
    3.1771   -1.2990    0.0000 C   0  0  0  0  0  0  0  0  0  0  0  0
    3.1771    0.2010    0.0000 N   0  0  0  0  0  0  0  0  0  0  0  0
    4.6036    0.6645    0.0000 N   0  0  0  0  0  0  0  0  0  0  0  0
    5.4853   -0.5490    0.0000 N   0  0  0  0  0  0  0  0  0  0  0  0
    4.6036   -1.7626    0.0000 N   0  0  0  0  0  0  0  0  0  0  0  0
    0.7500   -1.2990    0.0000 C   0  0  0  0  0  0  0  0  0  0  0  0
    1.5000    0.0000    0.0000 C   0  0  0  0  0  0  0  0  0  0  0  0
    0.7500    1.2990    0.0000 C   0  0  0  0  0  0  0  0  0  0  0  0
   -0.7500    1.2990    0.0000 C   0  0  0  0  0  0  0  0  0  0  0  0
   -1.5000    0.0000    0.0000 C   0  0  0  0  0  0  0  0  0  0  0  0
   -0.7500   -1.2990    0.0000 C   0  0  0  0  0  0  0  0  0  0  0  0
   -1.9635   -2.1807    0.0000 C   0  0  0  0  0  0  0  0  0  0  0  0
   -2.4271   -3.6073    0.0000 C   0  0  0  0  0  0  0  0  0  0  0  0
   -1.9635   -5.0339    0.0000 C   0  0  0  0  0  0  0  0  0  0  0  0
   -0.7500   -5.9156    0.0000 C   0  0  0  0  0  0  0  0  0  0  0  0
   -1.8107   -6.9762    0.0000 C   0  0  0  0  0  0  0  0  0  0  0  0
   -1.8107   -8.4762    0.0000 C   0  0  0  0  0  0  0  0  0  0  0  0
  1  2  1  0
  2  3  2  0
  3  4  1  0
  4  5  2  0
  5  6  1  0
  6  7  1  0
  7  8  1  0
  8  9  2  0
  9 10  1  0
 10 11  2  0
 11 12  1  0
 12 13  1  0
 13 14  2  0
 14 15  1  0
 15 16  2  0
 16 17  1  0
 17 18  2  0
 18 19  1  0
 19 20  2  0
 20 21  1  0
 21 22  1  0
 22 23  2  0
 23 24  1  0
 24 25  2  0
 25 26  1  0
 26 27  2  0
 26 28  1  0
 28 29  1  0
 29 30  1  0
 30 31  2  0
 31 32  1  0
 32 33  2  0
 33 34  1  0
 34 35  2  0
 35 36  1  0
 36 37  2  0
 35 38  1  0
 38 39  1  0
 39 40  2  0
 40 41  1  0
 16 42  1  0
 42 43  2  0
  5 44  1  0
 44 45  2  0
 45 46  1  0
 46 47  2  0
 47 48  1  0
 48 49  2  0
 49 50  1  0
 50 51  2  0
 51 52  1  0
 47 53  1  0
 53 54  2  0
 54 55  1  0
 55 56  2  0
 56 57  1  0
 57 58  2  0
 58 59  1  0
 59 60  2  0
 60 61  1  0
 61 62  2  0
 62 63  1  0
 63 64  2  0
 64  2  1  0
 12  8  1  0
 42 13  1  0
 62 44  1  0
 21 17  1  0
 38 22  1  0
 52 48  1  0
 58 53  1  0
 36 25  1  0
 41 29  2  0
M  END
>  <Title>  (759) 
idABDEgen8

$$$$

     RDKit          2D

 27 29  0  0  0  0  0  0  0  0999 V2000
    3.7500   -1.2990    0.0000 C   0  0  0  0  0  0  0  0  0  0  0  0
    3.0000    0.0000    0.0000 O   0  0  0  0  0  0  0  0  0  0  0  0
    1.5000    0.0000    0.0000 C   0  0  0  0  0  0  0  0  0  0  0  0
    0.7500   -1.2990    0.0000 C   0  0  0  0  0  0  0  0  0  0  0  0
   -0.7500   -1.2990    0.0000 C   0  0  0  0  0  0  0  0  0  0  0  0
   -1.5000    0.0000    0.0000 C   0  0  0  0  0  0  0  0  0  0  0  0
   -3.0000    0.0000    0.0000 C   0  0  0  0  0  0  0  0  0  0  0  0
   -3.7500   -1.2990    0.0000 O   0  0  0  0  0  0  0  0  0  0  0  0
   -3.7500    1.2990    0.0000 N   0  0  0  0  0  0  0  0  0  0  0  0
   -5.2500    1.2990    0.0000 C   0  0  0  0  0  0  0  0  0  0  0  0
   -6.1317    0.0855    0.0000 N   0  0  0  0  0  0  0  0  0  0  0  0
   -7.5583    0.5490    0.0000 N   0  0  0  0  0  0  0  0  0  0  0  0
   -7.5583    2.0490    0.0000 N   0  0  0  0  0  0  0  0  0  0  0  0
   -6.1317    2.5126    0.0000 N   0  0  0  0  0  0  0  0  0  0  0  0
   -5.6682    3.9391    0.0000 C   0  0  0  0  0  0  0  0  0  0  0  0
   -4.2009    4.2510    0.0000 C   0  0  0  0  0  0  0  0  0  0  0  0
   -3.7374    5.6776    0.0000 C   0  0  0  0  0  0  0  0  0  0  0  0
   -4.7411    6.7923    0.0000 C   0  0  0  0  0  0  0  0  0  0  0  0
   -4.2776    8.2189    0.0000 C   0  0  0  0  0  0  0  0  0  0  0  0
   -5.2813    9.3336    0.0000 O   0  0  0  0  0  0  0  0  0  0  0  0
   -2.8104    8.5308    0.0000 N   0  0  0  0  0  0  0  0  0  0  0  0
   -2.3468    9.9574    0.0000 O   0  0  0  0  0  0  0  0  0  0  0  0
   -6.2083    6.4805    0.0000 C   0  0  0  0  0  0  0  0  0  0  0  0
   -6.6718    5.0539    0.0000 C   0  0  0  0  0  0  0  0  0  0  0  0
   -0.7500    1.2990    0.0000 C   0  0  0  0  0  0  0  0  0  0  0  0
   -1.5000    2.5981    0.0000 O   0  0  0  0  0  0  0  0  0  0  0  0
    0.7500    1.2990    0.0000 N   0  0  0  0  0  0  0  0  0  0  0  0
  1  2  1  0
  2  3  1  0
  3  4  2  0
  4  5  1  0
  5  6  2  0
  6  7  1  0
  7  8  2  0
  7  9  1  0
  9 10  1  0
 10 11  2  0
 11 12  1  0
 12 13  2  0
 13 14  1  0
 14 15  1  0
 15 16  2  0
 16 17  1  0
 17 18  2  0
 18 19  1  0
 19 20  2  0
 19 21  1  0
 21 22  1  0
 18 23  1  0
 23 24  1  0
  6 25  1  0
 25 26  2  0
 25 27  1  0
 27  3  1  0
 14 10  1  0
 24 15  1  0
M  END
>  <Title>  (760) 
idABDFgen8

$$$$

     RDKit          2D

 12 12  0  0  0  0  0  0  0  0999 V2000
    4.2098   -1.2990    0.0000 C   0  0  0  0  0  0  0  0  0  0  0  0
    3.4598   -0.0000    0.0000 O   0  0  0  0  0  0  0  0  0  0  0  0
    1.9598    0.0000    0.0000 C   0  0  0  0  0  0  0  0  0  0  0  0
    1.3858   -1.3858    0.0000 C   0  0  0  0  0  0  0  0  0  0  0  0
   -0.0000   -1.9598    0.0000 C   0  0  0  0  0  0  0  0  0  0  0  0
   -1.3858   -1.3858    0.0000 C   0  0  0  0  0  0  0  0  0  0  0  0
   -1.9598    0.0000    0.0000 C   0  0  0  0  0  0  0  0  0  0  0  0
   -1.3858    1.3858    0.0000 C   0  0  0  0  0  0  0  0  0  0  0  0
   -2.4465    2.4465    0.0000 F   0  0  0  0  0  0  0  0  0  0  0  0
    0.0000    1.9598    0.0000 C   0  0  0  0  0  0  0  0  0  0  0  0
    1.3858    1.3858    0.0000 C   0  0  0  0  0  0  0  0  0  0  0  0
    2.4465    2.4465    0.0000 N   0  0  0  0  0  0  0  0  0  0  0  0
  1  2  1  0
  2  3  1  0
  3  4  2  0
  4  5  1  0
  5  6  2  0
  6  7  1  0
  7  8  2  0
  8  9  1  0
  8 10  1  0
 10 11  2  0
 11 12  1  0
 11  3  1  0
M  END
>  <Title>  (761) 
idABDGgen8

$$$$

     RDKit          2D

 29 33  0  0  0  0  0  0  0  0999 V2000
    3.0000    0.0000    0.0000 C   0  0  0  0  0  0  0  0  0  0  0  0
    1.5000    0.0000    0.0000 C   0  0  0  0  0  0  0  0  0  0  0  0
    0.7500   -1.2990    0.0000 C   0  0  0  0  0  0  0  0  0  0  0  0
   -0.7500   -1.2990    0.0000 C   0  0  0  0  0  0  0  0  0  0  0  0
   -1.5000    0.0000    0.0000 C   0  0  0  0  0  0  0  0  0  0  0  0
   -3.0000    0.0000    0.0000 C   0  0  0  0  0  0  0  0  0  0  0  0
   -3.8817   -1.2135    0.0000 N   0  0  0  0  0  0  0  0  0  0  0  0
   -5.3083   -0.7500    0.0000 N   0  0  0  0  0  0  0  0  0  0  0  0
   -5.3083    0.7500    0.0000 N   0  0  0  0  0  0  0  0  0  0  0  0
   -3.8817    1.2135    0.0000 N   0  0  0  0  0  0  0  0  0  0  0  0
   -3.4182    2.6401    0.0000 C   0  0  0  0  0  0  0  0  0  0  0  0
   -1.9509    2.9520    0.0000 C   0  0  0  0  0  0  0  0  0  0  0  0
   -1.4874    4.3786    0.0000 C   0  0  0  0  0  0  0  0  0  0  0  0
   -2.4911    5.4933    0.0000 C   0  0  0  0  0  0  0  0  0  0  0  0
   -2.0276    6.9199    0.0000 C   0  0  0  0  0  0  0  0  0  0  0  0
   -2.9093    8.1334    0.0000 N   0  0  0  0  0  0  0  0  0  0  0  0
   -2.0276    9.3469    0.0000 N   0  0  0  0  0  0  0  0  0  0  0  0
   -0.6010    8.8834    0.0000 N   0  0  0  0  0  0  0  0  0  0  0  0
   -0.6010    7.3834    0.0000 N   0  0  0  0  0  0  0  0  0  0  0  0
    0.6125    6.5017    0.0000 C   0  0  0  0  0  0  0  0  0  0  0  0
    0.4557    5.0099    0.0000 C   0  0  0  0  0  0  0  0  0  0  0  0
    1.6693    4.1283    0.0000 C   0  0  0  0  0  0  0  0  0  0  0  0
    3.0396    4.7384    0.0000 C   0  0  0  0  0  0  0  0  0  0  0  0
    3.1964    6.2301    0.0000 C   0  0  0  0  0  0  0  0  0  0  0  0
    1.9829    7.1118    0.0000 C   0  0  0  0  0  0  0  0  0  0  0  0
   -3.9583    5.1814    0.0000 C   0  0  0  0  0  0  0  0  0  0  0  0
   -4.4218    3.7548    0.0000 C   0  0  0  0  0  0  0  0  0  0  0  0
   -0.7500    1.2990    0.0000 N   0  0  0  0  0  0  0  0  0  0  0  0
    0.7500    1.2990    0.0000 N   0  0  0  0  0  0  0  0  0  0  0  0
  1  2  1  0
  2  3  2  0
  3  4  1  0
  4  5  2  0
  5  6  1  0
  6  7  2  0
  7  8  1  0
  8  9  2  0
  9 10  1  0
 10 11  1  0
 11 12  2  0
 12 13  1  0
 13 14  2  0
 14 15  1  0
 15 16  2  0
 16 17  1  0
 17 18  2  0
 18 19  1  0
 19 20  1  0
 20 21  2  0
 21 22  1  0
 22 23  2  0
 23 24  1  0
 24 25  2  0
 14 26  1  0
 26 27  2  0
  5 28  1  0
 28 29  2  0
 29  2  1  0
 10  6  1  0
 27 11  1  0
 19 15  1  0
 25 20  1  0
M  END
>  <Title>  (762) 
idABDHgen8

$$$$

     RDKit          2D

 43 49  0  0  0  0  0  0  0  0999 V2000
   -9.4393    7.6463    0.0000 C   0  0  0  0  0  0  0  0  0  0  0  0
   -8.2736    6.7023    0.0000 O   0  0  0  0  0  0  0  0  0  0  0  0
   -6.8732    7.2399    0.0000 C   0  0  0  0  0  0  0  0  0  0  0  0
   -6.6386    8.7214    0.0000 C   0  0  0  0  0  0  0  0  0  0  0  0
   -5.2382    9.2589    0.0000 C   0  0  0  0  0  0  0  0  0  0  0  0
   -4.0725    8.3150    0.0000 C   0  0  0  0  0  0  0  0  0  0  0  0
   -2.6721    8.8525    0.0000 C   0  0  0  0  0  0  0  0  0  0  0  0
   -2.2839   10.3014    0.0000 N   0  0  0  0  0  0  0  0  0  0  0  0
   -0.7859   10.3799    0.0000 N   0  0  0  0  0  0  0  0  0  0  0  0
   -0.2484    8.9795    0.0000 N   0  0  0  0  0  0  0  0  0  0  0  0
   -1.4141    8.0356    0.0000 N   0  0  0  0  0  0  0  0  0  0  0  0
   -1.3356    6.5376    0.0000 C   0  0  0  0  0  0  0  0  0  0  0  0
    0.1316    6.2257    0.0000 N   0  0  0  0  0  0  0  0  0  0  0  0
    1.2463    5.2220    0.0000 C   0  0  0  0  0  0  0  0  0  0  0  0
    2.5043    6.0390    0.0000 C   0  0  0  0  0  0  0  0  0  0  0  0
    3.8409    5.3580    0.0000 C   0  0  0  0  0  0  0  0  0  0  0  0
    5.0989    6.1750    0.0000 C   0  0  0  0  0  0  0  0  0  0  0  0
    5.0204    7.6729    0.0000 C   0  0  0  0  0  0  0  0  0  0  0  0
    3.6838    8.3539    0.0000 C   0  0  0  0  0  0  0  0  0  0  0  0
    2.4258    7.5370    0.0000 C   0  0  0  0  0  0  0  0  0  0  0  0
    1.7099    3.7955    0.0000 C   0  0  0  0  0  0  0  0  0  0  0  0
    3.2078    3.8740    0.0000 O   0  0  0  0  0  0  0  0  0  0  0  0
    1.3980    2.3282    0.0000 N   0  0  0  0  0  0  0  0  0  0  0  0
    0.3943    1.2135    0.0000 C   0  0  0  0  0  0  0  0  0  0  0  0
    1.2760    0.0000    0.0000 N   0  0  0  0  0  0  0  0  0  0  0  0
    0.3943   -1.2135    0.0000 N   0  0  0  0  0  0  0  0  0  0  0  0
   -1.0323   -0.7500    0.0000 N   0  0  0  0  0  0  0  0  0  0  0  0
   -1.0323    0.7500    0.0000 N   0  0  0  0  0  0  0  0  0  0  0  0
   -2.4995    1.0619    0.0000 C   0  0  0  0  0  0  0  0  0  0  0  0
   -3.0272    2.4468    0.0000 C   0  0  0  0  0  0  0  0  0  0  0  0
   -3.3787    3.5288    0.0000 C   0  0  0  0  0  0  0  0  0  0  0  0
   -3.7659    4.9594    0.0000 C   0  0  0  0  0  0  0  0  0  0  0  0
   -2.7622    6.0741    0.0000 C   0  0  0  0  0  0  0  0  0  0  0  0
   -3.5791    7.3321    0.0000 O   0  0  0  0  0  0  0  0  0  0  0  0
   -5.0536    4.1900    0.0000 C   0  0  0  0  0  0  0  0  0  0  0  0
   -6.4477    3.6268    0.0000 N   0  0  0  0  0  0  0  0  0  0  0  0
   -6.7596    2.1596    0.0000 N   0  0  0  0  0  0  0  0  0  0  0  0
   -5.6449    1.1559    0.0000 N   0  0  0  0  0  0  0  0  0  0  0  0
   -4.2183    1.6194    0.0000 N   0  0  0  0  0  0  0  0  0  0  0  0
   -5.2549    2.7036    0.0000 C   0  0  0  0  0  0  0  0  0  0  0  0
   -5.9309    2.2811    0.0000 O   0  0  0  0  0  0  0  0  0  0  0  0
   -4.3071    6.8334    0.0000 C   0  0  0  0  0  0  0  0  0  0  0  0
   -5.7075    6.2959    0.0000 C   0  0  0  0  0  0  0  0  0  0  0  0
  1  2  1  0
  2  3  1  0
  3  4  2  0
  4  5  1  0
  5  6  2  0
  6  7  1  0
  7  8  2  0
  8  9  1  0
  9 10  2  0
 10 11  1  0
 11 12  1  0
 12 13  1  0
 13 14  1  0
 14 15  1  0
 15 16  2  0
 16 17  1  0
 17 18  2  0
 18 19  1  0
 19 20  2  0
 14 21  1  0
 21 22  2  0
 21 23  1  0
 23 24  1  0
 24 25  2  0
 25 26  1  0
 26 27  2  0
 27 28  1  0
 28 29  1  0
 29 30  2  0
 30 31  1  0
 31 32  2  0
 32 33  1  0
 33 34  2  0
 32 35  1  0
 35 36  2  0
 36 37  1  0
 37 38  2  0
 38 39  1  0
 39 40  1  0
 40 41  2  0
  6 42  1  0
 42 43  2  0
 43  3  1  0
 11  7  1  0
 33 12  1  0
 40 35  1  0
 20 15  1  0
 28 24  1  0
 39 29  1  0
M  END
>  <Title>  (763) 
idABDIgen8

$$$$

     RDKit          2D

 26 27  0  0  0  0  0  0  0  0999 V2000
   -4.8223    8.3934    0.0000 C   0  0  0  0  0  0  0  0  0  0  0  0
   -4.3801    6.9600    0.0000 O   0  0  0  0  0  0  0  0  0  0  0  0
   -2.9178    6.6262    0.0000 C   0  0  0  0  0  0  0  0  0  0  0  0
   -2.3351    8.0085    0.0000 C   0  0  0  0  0  0  0  0  0  0  0  0
   -1.3148    9.1080    0.0000 C   0  0  0  0  0  0  0  0  0  0  0  0
    0.0200    9.7924    0.0000 C   0  0  0  0  0  0  0  0  0  0  0  0
    1.5083    9.9789    0.0000 C   0  0  0  0  0  0  0  0  0  0  0  0
    2.9707    9.6451    0.0000 C   0  0  0  0  0  0  0  0  0  0  0  0
    4.2308    8.8313    0.0000 C   0  0  0  0  0  0  0  0  0  0  0  0
    5.1365    7.6356    0.0000 C   0  0  0  0  0  0  0  0  0  0  0  0
    5.5786    6.2022    0.0000 C   0  0  0  0  0  0  0  0  0  0  0  0
    5.5038    4.7041    0.0000 C   0  0  0  0  0  0  0  0  0  0  0  0
    4.9212    3.3219    0.0000 C   0  0  0  0  0  0  0  0  0  0  0  0
    3.9009    2.2223    0.0000 C   0  0  0  0  0  0  0  0  0  0  0  0
    2.5661    1.5380    0.0000 C   0  0  0  0  0  0  0  0  0  0  0  0
    1.0777    1.3515    0.0000 C   0  0  0  0  0  0  0  0  0  0  0  0
    1.7286    0.0000    0.0000 C   0  0  0  0  0  0  0  0  0  0  0  0
    1.0777   -1.3515    0.0000 C   0  0  0  0  0  0  0  0  0  0  0  0
   -0.3846   -1.6852    0.0000 C   0  0  0  0  0  0  0  0  0  0  0  0
   -1.5574   -0.7500    0.0000 C   0  0  0  0  0  0  0  0  0  0  0  0
   -1.5574    0.7500    0.0000 C   0  0  0  0  0  0  0  0  0  0  0  0
   -0.3846    1.6852    0.0000 C   0  0  0  0  0  0  0  0  0  0  0  0
   -1.6447    2.4991    0.0000 N   0  0  0  0  0  0  0  0  0  0  0  0
   -2.5504    3.6948    0.0000 C   0  0  0  0  0  0  0  0  0  0  0  0
   -3.8852    3.0104    0.0000 O   0  0  0  0  0  0  0  0  0  0  0  0
   -2.9925    5.1281    0.0000 N   0  0  0  0  0  0  0  0  0  0  0  0
  1  2  1  0
  2  3  1  0
  3  4  2  0
  4  5  1  0
  5  6  2  0
  6  7  1  0
  7  8  2  0
  8  9  1  0
  9 10  2  0
 10 11  1  0
 11 12  2  0
 12 13  1  0
 13 14  2  0
 14 15  1  0
 15 16  2  0
 16 17  1  0
 17 18  2  0
 18 19  1  0
 19 20  2  0
 20 21  1  0
 21 22  2  0
 22 23  1  0
 23 24  1  0
 24 25  2  0
 24 26  1  0
 26  3  1  0
 22 16  1  0
M  END
>  <Title>  (764) 
idABDJgen8

$$$$

     RDKit          2D

 28 31  0  0  0  0  0  0  0  0999 V2000
  -10.1624    4.2767    0.0000 C   0  0  0  0  0  0  0  0  0  0  0  0
   -8.9488    3.3950    0.0000 C   0  0  0  0  0  0  0  0  0  0  0  0
   -7.5785    4.0051    0.0000 C   0  0  0  0  0  0  0  0  0  0  0  0
   -6.3650    3.1235    0.0000 C   0  0  0  0  0  0  0  0  0  0  0  0
   -6.5218    1.6317    0.0000 C   0  0  0  0  0  0  0  0  0  0  0  0
   -5.3083    0.7500    0.0000 C   0  0  0  0  0  0  0  0  0  0  0  0
   -5.3083   -0.7500    0.0000 N   0  0  0  0  0  0  0  0  0  0  0  0
   -3.8817   -1.2135    0.0000 N   0  0  0  0  0  0  0  0  0  0  0  0
   -3.0000    0.0000    0.0000 N   0  0  0  0  0  0  0  0  0  0  0  0
   -3.8817    1.2135    0.0000 N   0  0  0  0  0  0  0  0  0  0  0  0
   -3.4182    2.6401    0.0000 C   0  0  0  0  0  0  0  0  0  0  0  0
   -4.2998    3.8536    0.0000 C   0  0  0  0  0  0  0  0  0  0  0  0
   -3.4182    5.0672    0.0000 C   0  0  0  0  0  0  0  0  0  0  0  0
   -1.9916    4.6036    0.0000 N   0  0  0  0  0  0  0  0  0  0  0  0
   -1.9916    3.1036    0.0000 N   0  0  0  0  0  0  0  0  0  0  0  0
   -0.7780    2.2220    0.0000 C   0  0  0  0  0  0  0  0  0  0  0  0
   -0.7780    0.7220    0.0000 C   0  0  0  0  0  0  0  0  0  0  0  0
    0.6485    0.2584    0.0000 C   0  0  0  0  0  0  0  0  0  0  0  0
    1.5302    1.4720    0.0000 C   0  0  0  0  0  0  0  0  0  0  0  0
    3.0302    1.4720    0.0000 C   0  0  0  0  0  0  0  0  0  0  0  0
    3.7802    2.7710    0.0000 O   0  0  0  0  0  0  0  0  0  0  0  0
    3.7802    0.1729    0.0000 N   0  0  0  0  0  0  0  0  0  0  0  0
    5.2802    0.1729    0.0000 O   0  0  0  0  0  0  0  0  0  0  0  0
    0.6485    2.6855    0.0000 C   0  0  0  0  0  0  0  0  0  0  0  0
    1.1121    4.1121    0.0000 O   0  0  0  0  0  0  0  0  0  0  0  0
   -7.8921    1.0216    0.0000 N   0  0  0  0  0  0  0  0  0  0  0  0
   -9.1056    1.9033    0.0000 C   0  0  0  0  0  0  0  0  0  0  0  0
  -10.4760    1.2931    0.0000 O   0  0  0  0  0  0  0  0  0  0  0  0
  1  2  1  0
  2  3  2  0
  3  4  1  0
  4  5  2  0
  5  6  1  0
  6  7  2  0
  7  8  1  0
  8  9  2  0
  9 10  1  0
 10 11  1  0
 11 12  2  0
 12 13  1  0
 13 14  2  0
 14 15  1  0
 15 16  1  0
 16 17  2  0
 17 18  1  0
 18 19  2  0
 19 20  1  0
 20 21  2  0
 20 22  1  0
 22 23  1  0
 19 24  1  0
 24 25  2  0
  5 26  1  0
 26 27  1  0
 27 28  2  0
 27  2  1  0
 10  6  1  0
 15 11  1  0
 24 16  1  0
M  END
>  <Title>  (765) 
idABDKgen8

$$$$

     RDKit          2D

 31 35  0  0  0  0  0  0  0  0999 V2000
    3.7500    1.2990    0.0000 C   0  0  0  0  0  0  0  0  0  0  0  0
    3.0000    0.0000    0.0000 O   0  0  0  0  0  0  0  0  0  0  0  0
    1.5000    0.0000    0.0000 C   0  0  0  0  0  0  0  0  0  0  0  0
    0.7500    1.2990    0.0000 C   0  0  0  0  0  0  0  0  0  0  0  0
   -0.7500    1.2990    0.0000 C   0  0  0  0  0  0  0  0  0  0  0  0
   -1.5000    0.0000    0.0000 C   0  0  0  0  0  0  0  0  0  0  0  0
   -3.0000    0.0000    0.0000 C   0  0  0  0  0  0  0  0  0  0  0  0
   -3.8817   -1.2135    0.0000 N   0  0  0  0  0  0  0  0  0  0  0  0
   -5.3083   -0.7500    0.0000 N   0  0  0  0  0  0  0  0  0  0  0  0
   -5.3083    0.7500    0.0000 N   0  0  0  0  0  0  0  0  0  0  0  0
   -3.8817    1.2135    0.0000 N   0  0  0  0  0  0  0  0  0  0  0  0
   -3.4182    2.6401    0.0000 C   0  0  0  0  0  0  0  0  0  0  0  0
   -4.2998    3.8536    0.0000 C   0  0  0  0  0  0  0  0  0  0  0  0
   -3.4182    5.0672    0.0000 C   0  0  0  0  0  0  0  0  0  0  0  0
   -1.9916    4.6036    0.0000 C   0  0  0  0  0  0  0  0  0  0  0  0
   -0.7780    5.4853    0.0000 C   0  0  0  0  0  0  0  0  0  0  0  0
    0.6485    5.0218    0.0000 N   0  0  0  0  0  0  0  0  0  0  0  0
    1.5302    6.2353    0.0000 N   0  0  0  0  0  0  0  0  0  0  0  0
    0.6485    7.4488    0.0000 N   0  0  0  0  0  0  0  0  0  0  0  0
   -0.7780    6.9853    0.0000 N   0  0  0  0  0  0  0  0  0  0  0  0
   -1.9916    7.8670    0.0000 C   0  0  0  0  0  0  0  0  0  0  0  0
   -3.3619    7.2569    0.0000 C   0  0  0  0  0  0  0  0  0  0  0  0
   -4.5754    8.1386    0.0000 C   0  0  0  0  0  0  0  0  0  0  0  0
   -4.4186    9.6303    0.0000 C   0  0  0  0  0  0  0  0  0  0  0  0
   -3.0483   10.2405    0.0000 C   0  0  0  0  0  0  0  0  0  0  0  0
   -1.8348    9.3588    0.0000 C   0  0  0  0  0  0  0  0  0  0  0  0
   -1.9916    3.1036    0.0000 C   0  0  0  0  0  0  0  0  0  0  0  0
   -0.7780    2.2220    0.0000 O   0  0  0  0  0  0  0  0  0  0  0  0
   -0.7500   -1.2990    0.0000 C   0  0  0  0  0  0  0  0  0  0  0  0
   -1.5000   -2.5981    0.0000 O   0  0  0  0  0  0  0  0  0  0  0  0
    0.7500   -1.2990    0.0000 N   0  0  0  0  0  0  0  0  0  0  0  0
  1  2  1  0
  2  3  1  0
  3  4  2  0
  4  5  1  0
  5  6  2  0
  6  7  1  0
  7  8  2  0
  8  9  1  0
  9 10  2  0
 10 11  1  0
 11 12  1  0
 12 13  2  0
 13 14  1  0
 14 15  2  0
 15 16  1  0
 16 17  2  0
 17 18  1  0
 18 19  2  0
 19 20  1  0
 20 21  1  0
 21 22  2  0
 22 23  1  0
 23 24  2  0
 24 25  1  0
 25 26  2  0
 15 27  1  0
 27 28  2  0
  6 29  1  0
 29 30  2  0
 29 31  1  0
 31  3  1  0
 11  7  1  0
 27 12  1  0
 20 16  1  0
 26 21  1  0
M  END
>  <Title>  (766) 
idABDLgen8

$$$$

     RDKit          2D

 12 12  0  0  0  0  0  0  0  0999 V2000
    3.4598   -0.0000    0.0000 C   0  0  0  0  0  0  0  0  0  0  0  0
    1.9598    0.0000    0.0000 C   0  0  0  0  0  0  0  0  0  0  0  0
    1.3858   -1.3858    0.0000 C   0  0  0  0  0  0  0  0  0  0  0  0
   -0.0000   -1.9598    0.0000 C   0  0  0  0  0  0  0  0  0  0  0  0
   -1.3858   -1.3858    0.0000 C   0  0  0  0  0  0  0  0  0  0  0  0
   -2.4465   -2.4465    0.0000 F   0  0  0  0  0  0  0  0  0  0  0  0
   -1.9598    0.0000    0.0000 C   0  0  0  0  0  0  0  0  0  0  0  0
   -3.4598    0.0000    0.0000 C   0  0  0  0  0  0  0  0  0  0  0  0
   -1.3858    1.3858    0.0000 C   0  0  0  0  0  0  0  0  0  0  0  0
    0.0000    1.9598    0.0000 C   0  0  0  0  0  0  0  0  0  0  0  0
    1.3858    1.3858    0.0000 C   0  0  0  0  0  0  0  0  0  0  0  0
    2.4465    2.4465    0.0000 O   0  0  0  0  0  0  0  0  0  0  0  0
  1  2  1  0
  2  3  2  0
  3  4  1  0
  4  5  2  0
  5  6  1  0
  5  7  1  0
  7  8  1  0
  7  9  2  0
  9 10  1  0
 10 11  2  0
 11 12  1  0
 11  2  1  0
M  END
>  <Title>  (767) 
idABDMgen8

$$$$

     RDKit          2D

 57 64  0  0  0  0  0  0  0  0999 V2000
    2.0130   -2.5242    0.0000 C   0  0  0  0  0  0  0  0  0  0  0  0
    1.0777   -1.3515    0.0000 C   0  0  0  0  0  0  0  0  0  0  0  0
   -0.3846   -1.6852    0.0000 C   0  0  0  0  0  0  0  0  0  0  0  0
   -1.5574   -0.7500    0.0000 C   0  0  0  0  0  0  0  0  0  0  0  0
   -1.5574    0.7500    0.0000 C   0  0  0  0  0  0  0  0  0  0  0  0
   -2.9088    1.4008    0.0000 C   0  0  0  0  0  0  0  0  0  0  0  0
   -3.0209    2.8966    0.0000 C   0  0  0  0  0  0  0  0  0  0  0  0
   -4.3724    3.5475    0.0000 N   0  0  0  0  0  0  0  0  0  0  0  0
   -5.6118    2.7025    0.0000 N   0  0  0  0  0  0  0  0  0  0  0  0
   -5.4997    1.2067    0.0000 N   0  0  0  0  0  0  0  0  0  0  0  0
   -4.1482    0.5558    0.0000 N   0  0  0  0  0  0  0  0  0  0  0  0
   -4.0361   -0.9400    0.0000 C   0  0  0  0  0  0  0  0  0  0  0  0
   -5.2755   -1.7849    0.0000 C   0  0  0  0  0  0  0  0  0  0  0  0
   -5.1634   -3.2807    0.0000 C   0  0  0  0  0  0  0  0  0  0  0  0
   -3.8119   -3.9316    0.0000 C   0  0  0  0  0  0  0  0  0  0  0  0
   -3.6998   -5.4274    0.0000 C   0  0  0  0  0  0  0  0  0  0  0  0
   -2.3484   -6.0782    0.0000 O   0  0  0  0  0  0  0  0  0  0  0  0
   -4.9392   -6.2724    0.0000 N   0  0  0  0  0  0  0  0  0  0  0  0
   -4.8271   -7.7682    0.0000 C   0  0  0  0  0  0  0  0  0  0  0  0
   -3.5511   -8.5567    0.0000 N   0  0  0  0  0  0  0  0  0  0  0  0
   -3.9067  -10.0139    0.0000 N   0  0  0  0  0  0  0  0  0  0  0  0
   -5.4025  -10.1260    0.0000 N   0  0  0  0  0  0  0  0  0  0  0  0
   -5.9713   -8.7381    0.0000 N   0  0  0  0  0  0  0  0  0  0  0  0
   -7.4286   -8.3824    0.0000 C   0  0  0  0  0  0  0  0  0  0  0  0
   -7.8492   -6.9426    0.0000 C   0  0  0  0  0  0  0  0  0  0  0  0
   -9.3064   -6.5870    0.0000 C   0  0  0  0  0  0  0  0  0  0  0  0
  -10.3430   -7.6712    0.0000 C   0  0  0  0  0  0  0  0  0  0  0  0
   -9.9224   -9.1110    0.0000 C   0  0  0  0  0  0  0  0  0  0  0  0
   -8.4652   -9.4666    0.0000 C   0  0  0  0  0  0  0  0  0  0  0  0
   -8.0445  -10.9064    0.0000 C   0  0  0  0  0  0  0  0  0  0  0  0
   -9.0811  -11.9906    0.0000 C   0  0  0  0  0  0  0  0  0  0  0  0
   -8.6605  -13.4305    0.0000 C   0  0  0  0  0  0  0  0  0  0  0  0
   -7.2032  -13.7861    0.0000 C   0  0  0  0  0  0  0  0  0  0  0  0
   -6.1666  -12.7019    0.0000 C   0  0  0  0  0  0  0  0  0  0  0  0
   -6.5873  -11.2621    0.0000 C   0  0  0  0  0  0  0  0  0  0  0  0
   -2.5726   -3.0866    0.0000 C   0  0  0  0  0  0  0  0  0  0  0  0
   -2.6847   -1.5908    0.0000 C   0  0  0  0  0  0  0  0  0  0  0  0
   -0.3846    1.6852    0.0000 N   0  0  0  0  0  0  0  0  0  0  0  0
   -0.7184    3.1476    0.0000 N   0  0  0  0  0  0  0  0  0  0  0  0
    0.3812    4.1679    0.0000 C   0  0  0  0  0  0  0  0  0  0  0  0
    1.8145    3.7258    0.0000 O   0  0  0  0  0  0  0  0  0  0  0  0
    0.0474    5.6303    0.0000 N   0  0  0  0  0  0  0  0  0  0  0  0
    1.1469    6.6505    0.0000 C   0  0  0  0  0  0  0  0  0  0  0  0
    2.6187    6.3607    0.0000 N   0  0  0  0  0  0  0  0  0  0  0  0
    3.3492    7.6708    0.0000 N   0  0  0  0  0  0  0  0  0  0  0  0
    2.3289    8.7703    0.0000 N   0  0  0  0  0  0  0  0  0  0  0  0
    0.9679    8.1398    0.0000 N   0  0  0  0  0  0  0  0  0  0  0  0
   -0.3423    8.8703    0.0000 C   0  0  0  0  0  0  0  0  0  0  0  0
   -1.6299    8.1009    0.0000 C   0  0  0  0  0  0  0  0  0  0  0  0
   -2.9400    8.8314    0.0000 C   0  0  0  0  0  0  0  0  0  0  0  0
   -2.9625   10.3313    0.0000 C   0  0  0  0  0  0  0  0  0  0  0  0
   -4.2726   11.0617    0.0000 C   0  0  0  0  0  0  0  0  0  0  0  0
   -1.6748   11.1006    0.0000 C   0  0  0  0  0  0  0  0  0  0  0  0
   -1.6972   12.6004    0.0000 O   0  0  0  0  0  0  0  0  0  0  0  0
   -0.3647   10.3701    0.0000 N   0  0  0  0  0  0  0  0  0  0  0  0
    1.0777    1.3515    0.0000 N   0  0  0  0  0  0  0  0  0  0  0  0
    1.7286    0.0000    0.0000 C   0  0  0  0  0  0  0  0  0  0  0  0
  1  2  1  0
  2  3  2  0
  3  4  1  0
  4  5  2  0
  5  6  1  0
  6  7  1  0
  7  8  1  0
  8  9  1  0
  9 10  2  0
 10 11  1  0
 11 12  1  0
 12 13  2  0
 13 14  1  0
 14 15  2  0
 15 16  1  0
 16 17  2  0
 16 18  1  0
 18 19  1  0
 19 20  2  0
 20 21  1  0
 21 22  2  0
 22 23  1  0
 23 24  1  0
 24 25  2  0
 25 26  1  0
 26 27  2  0
 27 28  1  0
 28 29  2  0
 29 30  1  0
 30 31  2  0
 31 32  1  0
 32 33  2  0
 33 34  1  0
 34 35  2  0
 15 36  1  0
 36 37  2  0
  5 38  1  0
 38 39  1  0
 39 40  1  0
 40 41  2  0
 40 42  1  0
 42 43  1  0
 43 44  2  0
 44 45  1  0
 45 46  2  0
 46 47  1  0
 47 48  1  0
 48 49  2  0
 49 50  1  0
 50 51  2  0
 51 52  1  0
 51 53  1  0
 53 54  2  0
 53 55  1  0
 38 56  1  0
 56 57  1  0
 57  2  1  0
 11  6  1  0
 37 12  1  0
 47 43  1  0
 55 48  1  0
 23 19  1  0
 29 24  1  0
 35 30  1  0
M  END
>  <Title>  (768) 
idABDNgen8

$$$$

     RDKit          2D

 10 10  0  0  0  0  0  0  0  0999 V2000
    3.0000    0.0000    0.0000 N   0  0  0  0  0  0  0  0  0  0  0  0
    1.5000    0.0000    0.0000 C   0  0  0  0  0  0  0  0  0  0  0  0
    0.7500   -1.2990    0.0000 C   0  0  0  0  0  0  0  0  0  0  0  0
   -0.7500   -1.2990    0.0000 C   0  0  0  0  0  0  0  0  0  0  0  0
   -1.5000    0.0000    0.0000 C   0  0  0  0  0  0  0  0  0  0  0  0
   -0.7500    1.2990    0.0000 C   0  0  0  0  0  0  0  0  0  0  0  0
    0.7500    1.2990    0.0000 C   0  0  0  0  0  0  0  0  0  0  0  0
    1.5000    2.5981    0.0000 C   0  0  0  0  0  0  0  0  0  0  0  0
    0.7500    3.8971    0.0000 O   0  0  0  0  0  0  0  0  0  0  0  0
    3.0000    2.5981    0.0000 O   0  0  0  0  0  0  0  0  0  0  0  0
  1  2  1  0
  2  3  2  0
  3  4  1  0
  4  5  2  0
  5  6  1  0
  6  7  2  0
  7  8  1  0
  8  9  2  0
  8 10  1  0
  7  2  1  0
M  END
>  <Title>  (769) 
idABDOgen8

$$$$

     RDKit          2D

  6  6  0  0  0  0  0  0  0  0999 V2000
    1.5000    0.0000    0.0000 C   0  0  0  0  0  0  0  0  0  0  0  0
    0.7500   -1.2990    0.0000 C   0  0  0  0  0  0  0  0  0  0  0  0
   -0.7500   -1.2990    0.0000 C   0  0  0  0  0  0  0  0  0  0  0  0
   -1.5000    0.0000    0.0000 C   0  0  0  0  0  0  0  0  0  0  0  0
   -0.7500    1.2990    0.0000 C   0  0  0  0  0  0  0  0  0  0  0  0
    0.7500    1.2990    0.0000 C   0  0  0  0  0  0  0  0  0  0  0  0
  1  2  2  0
  2  3  1  0
  3  4  2  0
  4  5  1  0
  5  6  2  0
  6  1  1  0
M  END
>  <Title>  (770) 
idABDPgen8

$$$$

     RDKit          2D

 54 61  0  0  0  0  0  0  0  0999 V2000
  -10.1624    4.2767    0.0000 C   0  0  0  0  0  0  0  0  0  0  0  0
   -8.9488    3.3950    0.0000 C   0  0  0  0  0  0  0  0  0  0  0  0
   -9.1056    1.9033    0.0000 C   0  0  0  0  0  0  0  0  0  0  0  0
   -7.8921    1.0216    0.0000 C   0  0  0  0  0  0  0  0  0  0  0  0
   -6.5218    1.6317    0.0000 C   0  0  0  0  0  0  0  0  0  0  0  0
   -5.3083    0.7500    0.0000 C   0  0  0  0  0  0  0  0  0  0  0  0
   -5.3083   -0.7500    0.0000 C   0  0  0  0  0  0  0  0  0  0  0  0
   -3.8817   -1.2135    0.0000 N   0  0  0  0  0  0  0  0  0  0  0  0
   -3.0000    0.0000    0.0000 N   0  0  0  0  0  0  0  0  0  0  0  0
   -3.8817    1.2135    0.0000 N   0  0  0  0  0  0  0  0  0  0  0  0
   -3.4182    2.6401    0.0000 C   0  0  0  0  0  0  0  0  0  0  0  0
   -4.2998    3.8536    0.0000 N   0  0  0  0  0  0  0  0  0  0  0  0
   -3.4182    5.0672    0.0000 N   0  0  0  0  0  0  0  0  0  0  0  0
   -1.9916    4.6036    0.0000 N   0  0  0  0  0  0  0  0  0  0  0  0
   -1.9916    3.1036    0.0000 N   0  0  0  0  0  0  0  0  0  0  0  0
   -0.7780    2.2220    0.0000 C   0  0  0  0  0  0  0  0  0  0  0  0
   -0.9348    0.7302    0.0000 C   0  0  0  0  0  0  0  0  0  0  0  0
    0.2787   -0.1515    0.0000 C   0  0  0  0  0  0  0  0  0  0  0  0
    1.6490    0.4586    0.0000 C   0  0  0  0  0  0  0  0  0  0  0  0
    2.8625   -0.4231    0.0000 C   0  0  0  0  0  0  0  0  0  0  0  0
    2.7057   -1.9149    0.0000 O   0  0  0  0  0  0  0  0  0  0  0  0
    4.2329    0.1870    0.0000 N   0  0  0  0  0  0  0  0  0  0  0  0
    5.4464   -0.6946    0.0000 C   0  0  0  0  0  0  0  0  0  0  0  0
    5.4464   -2.1946    0.0000 N   0  0  0  0  0  0  0  0  0  0  0  0
    6.8730   -2.6582    0.0000 N   0  0  0  0  0  0  0  0  0  0  0  0
    7.7546   -1.4446    0.0000 N   0  0  0  0  0  0  0  0  0  0  0  0
    6.8730   -0.2311    0.0000 N   0  0  0  0  0  0  0  0  0  0  0  0
    7.3365    1.1955    0.0000 C   0  0  0  0  0  0  0  0  0  0  0  0
    8.8037    1.5073    0.0000 C   0  0  0  0  0  0  0  0  0  0  0  0
    9.2672    2.9339    0.0000 C   0  0  0  0  0  0  0  0  0  0  0  0
    8.2635    4.0486    0.0000 C   0  0  0  0  0  0  0  0  0  0  0  0
    6.7963    3.7368    0.0000 C   0  0  0  0  0  0  0  0  0  0  0  0
    6.3328    2.3102    0.0000 C   0  0  0  0  0  0  0  0  0  0  0  0
    1.8058    1.9504    0.0000 C   0  0  0  0  0  0  0  0  0  0  0  0
    0.5923    2.8321    0.0000 C   0  0  0  0  0  0  0  0  0  0  0  0
    0.7491    4.3238    0.0000 C   0  0  0  0  0  0  0  0  0  0  0  0
    2.1194    4.9340    0.0000 C   0  0  0  0  0  0  0  0  0  0  0  0
    2.2762    6.4257    0.0000 C   0  0  0  0  0  0  0  0  0  0  0  0
    1.0627    7.3074    0.0000 C   0  0  0  0  0  0  0  0  0  0  0  0
    1.2194    8.7992    0.0000 C   0  0  0  0  0  0  0  0  0  0  0  0
    2.5898    9.4093    0.0000 N   0  0  0  0  0  0  0  0  0  0  0  0
    2.7466   10.9011    0.0000 C   0  0  0  0  0  0  0  0  0  0  0  0
    1.5330   11.7828    0.0000 O   0  0  0  0  0  0  0  0  0  0  0  0
    4.1169   11.5112    0.0000 C   0  0  0  0  0  0  0  0  0  0  0  0
    5.3304   10.6295    0.0000 C   0  0  0  0  0  0  0  0  0  0  0  0
    6.7007   11.2396    0.0000 C   0  0  0  0  0  0  0  0  0  0  0  0
    6.8575   12.7314    0.0000 C   0  0  0  0  0  0  0  0  0  0  0  0
    5.6440   13.6131    0.0000 C   0  0  0  0  0  0  0  0  0  0  0  0
    4.2737   13.0030    0.0000 C   0  0  0  0  0  0  0  0  0  0  0  0
   -0.3077    6.6973    0.0000 C   0  0  0  0  0  0  0  0  0  0  0  0
   -0.4645    5.2055    0.0000 C   0  0  0  0  0  0  0  0  0  0  0  0
   -6.3650    3.1235    0.0000 C   0  0  0  0  0  0  0  0  0  0  0  0
   -7.5785    4.0051    0.0000 C   0  0  0  0  0  0  0  0  0  0  0  0
   -7.4217    5.4969    0.0000 N   0  0  0  0  0  0  0  0  0  0  0  0
  1  2  1  0
  2  3  2  0
  3  4  1  0
  4  5  2  0
  5  6  1  0
  6  7  2  0
  7  8  1  0
  8  9  2  0
  9 10  1  0
 10 11  1  0
 11 12  2  0
 12 13  1  0
 13 14  2  0
 14 15  1  0
 15 16  1  0
 16 17  2  0
 17 18  1  0
 18 19  2  0
 19 20  1  0
 20 21  2  0
 20 22  1  0
 22 23  1  0
 23 24  2  0
 24 25  1  0
 25 26  2  0
 26 27  1  0
 27 28  1  0
 28 29  2  0
 29 30  1  0
 30 31  2  0
 31 32  1  0
 32 33  2  0
 19 34  1  0
 34 35  2  0
 35 36  1  0
 36 37  2  0
 37 38  1  0
 38 39  2  0
 39 40  1  0
 40 41  1  0
 41 42  1  0
 42 43  2  0
 42 44  1  0
 44 45  2  0
 45 46  1  0
 46 47  2  0
 47 48  1  0
 48 49  2  0
 39 50  1  0
 50 51  2  0
  5 52  1  0
 52 53  2  0
 53 54  1  0
 53  2  1  0
 10  6  1  0
 15 11  1  0
 35 16  1  0
 51 36  1  0
 27 23  1  0
 33 28  1  0
 49 44  1  0
M  END
>  <Title>  (771) 
idABDQgen8

$$$$

     RDKit          2D

 29 29  0  0  0  0  0  0  0  0999 V2000
    8.1986    0.0000    0.0000 O   0  0  0  0  0  0  0  0  0  0  0  0
    6.6986    0.0000    0.0000 C   0  0  0  0  0  0  0  0  0  0  0  0
    6.5306   -1.4906    0.0000 C   0  0  0  0  0  0  0  0  0  0  0  0
    6.0352   -2.9064    0.0000 C   0  0  0  0  0  0  0  0  0  0  0  0
    5.2371   -4.1765    0.0000 C   0  0  0  0  0  0  0  0  0  0  0  0
    4.1765   -5.2371    0.0000 C   0  0  0  0  0  0  0  0  0  0  0  0
    2.9064   -6.0352    0.0000 C   0  0  0  0  0  0  0  0  0  0  0  0
    1.4906   -6.5306    0.0000 C   0  0  0  0  0  0  0  0  0  0  0  0
   -0.0000   -6.6986    0.0000 C   0  0  0  0  0  0  0  0  0  0  0  0
   -1.4906   -6.5306    0.0000 C   0  0  0  0  0  0  0  0  0  0  0  0
   -2.9064   -6.0352    0.0000 C   0  0  0  0  0  0  0  0  0  0  0  0
   -4.1765   -5.2371    0.0000 C   0  0  0  0  0  0  0  0  0  0  0  0
   -5.2371   -4.1765    0.0000 C   0  0  0  0  0  0  0  0  0  0  0  0
   -6.0352   -2.9064    0.0000 C   0  0  0  0  0  0  0  0  0  0  0  0
   -6.5306   -1.4906    0.0000 C   0  0  0  0  0  0  0  0  0  0  0  0
   -6.6986    0.0000    0.0000 C   0  0  0  0  0  0  0  0  0  0  0  0
   -6.5306    1.4906    0.0000 C   0  0  0  0  0  0  0  0  0  0  0  0
   -6.0352    2.9064    0.0000 C   0  0  0  0  0  0  0  0  0  0  0  0
   -5.2371    4.1765    0.0000 C   0  0  0  0  0  0  0  0  0  0  0  0
   -4.1765    5.2371    0.0000 C   0  0  0  0  0  0  0  0  0  0  0  0
   -2.9064    6.0352    0.0000 C   0  0  0  0  0  0  0  0  0  0  0  0
   -1.4906    6.5306    0.0000 C   0  0  0  0  0  0  0  0  0  0  0  0
    0.0000    6.6986    0.0000 C   0  0  0  0  0  0  0  0  0  0  0  0
    1.4906    6.5306    0.0000 C   0  0  0  0  0  0  0  0  0  0  0  0
    2.9064    6.0352    0.0000 C   0  0  0  0  0  0  0  0  0  0  0  0
    4.1765    5.2371    0.0000 C   0  0  0  0  0  0  0  0  0  0  0  0
    5.2371    4.1765    0.0000 C   0  0  0  0  0  0  0  0  0  0  0  0
    6.0352    2.9064    0.0000 C   0  0  0  0  0  0  0  0  0  0  0  0
    6.5306    1.4906    0.0000 C   0  0  0  0  0  0  0  0  0  0  0  0
  1  2  1  0
  2  3  2  0
  3  4  1  0
  4  5  2  0
  5  6  1  0
  6  7  2  0
  7  8  1  0
  8  9  2  0
  9 10  1  0
 10 11  2  0
 11 12  1  0
 12 13  2  0
 13 14  1  0
 14 15  2  0
 15 16  1  0
 16 17  2  0
 17 18  1  0
 18 19  2  0
 19 20  1  0
 20 21  2  0
 21 22  1  0
 22 23  2  0
 23 24  1  0
 24 25  2  0
 25 26  1  0
 26 27  2  0
 27 28  1  0
 28 29  2  0
 29  2  1  0
M  END
>  <Title>  (772) 
idABDRgen8

$$$$

     RDKit          2D

 52 59  0  0  0  0  0  0  0  0999 V2000
    3.0000    0.0000    0.0000 C   0  0  0  0  0  0  0  0  0  0  0  0
    1.5000    0.0000    0.0000 C   0  0  0  0  0  0  0  0  0  0  0  0
    0.7500   -1.2990    0.0000 C   0  0  0  0  0  0  0  0  0  0  0  0
   -0.7500   -1.2990    0.0000 C   0  0  0  0  0  0  0  0  0  0  0  0
   -1.5000    0.0000    0.0000 C   0  0  0  0  0  0  0  0  0  0  0  0
   -3.0000    0.0000    0.0000 C   0  0  0  0  0  0  0  0  0  0  0  0
   -3.8817   -1.2135    0.0000 N   0  0  0  0  0  0  0  0  0  0  0  0
   -5.3083   -0.7500    0.0000 N   0  0  0  0  0  0  0  0  0  0  0  0
   -5.3083    0.7500    0.0000 N   0  0  0  0  0  0  0  0  0  0  0  0
   -3.8817    1.2135    0.0000 N   0  0  0  0  0  0  0  0  0  0  0  0
   -3.4182    2.6401    0.0000 C   0  0  0  0  0  0  0  0  0  0  0  0
   -1.9509    2.9520    0.0000 C   0  0  0  0  0  0  0  0  0  0  0  0
   -1.4874    4.3786    0.0000 C   0  0  0  0  0  0  0  0  0  0  0  0
   -2.4911    5.4933    0.0000 C   0  0  0  0  0  0  0  0  0  0  0  0
   -3.9583    5.1814    0.0000 C   0  0  0  0  0  0  0  0  0  0  0  0
   -4.4218    3.7548    0.0000 C   0  0  0  0  0  0  0  0  0  0  0  0
   -5.8891    3.4430    0.0000 C   0  0  0  0  0  0  0  0  0  0  0  0
   -6.4992    2.0726    0.0000 C   0  0  0  0  0  0  0  0  0  0  0  0
   -7.9910    2.2294    0.0000 N   0  0  0  0  0  0  0  0  0  0  0  0
   -8.3028    3.6967    0.0000 N   0  0  0  0  0  0  0  0  0  0  0  0
   -7.0038    4.4467    0.0000 N   0  0  0  0  0  0  0  0  0  0  0  0
   -6.8470    5.9384    0.0000 C   0  0  0  0  0  0  0  0  0  0  0  0
   -5.4767    6.5485    0.0000 C   0  0  0  0  0  0  0  0  0  0  0  0
   -5.3199    8.0403    0.0000 C   0  0  0  0  0  0  0  0  0  0  0  0
   -6.5334    8.9220    0.0000 C   0  0  0  0  0  0  0  0  0  0  0  0
   -6.3766   10.4138    0.0000 C   0  0  0  0  0  0  0  0  0  0  0  0
   -5.0063   11.0239    0.0000 C   0  0  0  0  0  0  0  0  0  0  0  0
   -4.8495   12.5157    0.0000 C   0  0  0  0  0  0  0  0  0  0  0  0
   -6.0630   13.3974    0.0000 C   0  0  0  0  0  0  0  0  0  0  0  0
   -7.4333   12.7872    0.0000 C   0  0  0  0  0  0  0  0  0  0  0  0
   -7.5901   11.2955    0.0000 C   0  0  0  0  0  0  0  0  0  0  0  0
   -8.9605   10.6854    0.0000 C   0  0  0  0  0  0  0  0  0  0  0  0
  -10.1740   11.5670    0.0000 C   0  0  0  0  0  0  0  0  0  0  0  0
  -11.5443   10.9569    0.0000 C   0  0  0  0  0  0  0  0  0  0  0  0
  -11.7011    9.4652    0.0000 C   0  0  0  0  0  0  0  0  0  0  0  0
  -10.4876    8.5835    0.0000 C   0  0  0  0  0  0  0  0  0  0  0  0
   -9.1173    9.1936    0.0000 C   0  0  0  0  0  0  0  0  0  0  0  0
   -7.9037    8.3119    0.0000 C   0  0  0  0  0  0  0  0  0  0  0  0
   -8.0605    6.8201    0.0000 C   0  0  0  0  0  0  0  0  0  0  0  0
   -9.4308    6.2100    0.0000 C   0  0  0  0  0  0  0  0  0  0  0  0
  -10.6444    7.0917    0.0000 C   0  0  0  0  0  0  0  0  0  0  0  0
  -12.0147    6.4816    0.0000 C   0  0  0  0  0  0  0  0  0  0  0  0
  -12.1715    4.9898    0.0000 C   0  0  0  0  0  0  0  0  0  0  0  0
  -13.5418    4.3797    0.0000 C   0  0  0  0  0  0  0  0  0  0  0  0
  -13.6986    2.8879    0.0000 O   0  0  0  0  0  0  0  0  0  0  0  0
  -14.7553    5.2614    0.0000 N   0  0  0  0  0  0  0  0  0  0  0  0
  -16.1256    4.6513    0.0000 O   0  0  0  0  0  0  0  0  0  0  0  0
  -10.9579    4.1081    0.0000 C   0  0  0  0  0  0  0  0  0  0  0  0
   -9.5876    4.7182    0.0000 C   0  0  0  0  0  0  0  0  0  0  0  0
   -0.7500    1.2990    0.0000 C   0  0  0  0  0  0  0  0  0  0  0  0
    0.7500    1.2990    0.0000 C   0  0  0  0  0  0  0  0  0  0  0  0
    1.5000    2.5981    0.0000 C   0  0  0  0  0  0  0  0  0  0  0  0
  1  2  1  0
  2  3  2  0
  3  4  1  0
  4  5  2  0
  5  6  1  0
  6  7  2  0
  7  8  1  0
  8  9  2  0
  9 10  1  0
 10 11  1  0
 11 12  1  0
 12 13  1  0
 13 14  1  0
 14 15  1  0
 15 16  1  0
 16 17  1  0
 17 18  2  0
 18 19  1  0
 19 20  2  0
 20 21  1  0
 21 22  1  0
 22 23  2  0
 23 24  1  0
 24 25  2  0
 25 26  1  0
 26 27  2  0
 27 28  1  0
 28 29  2  0
 29 30  1  0
 30 31  2  0
 31 32  1  0
 32 33  2  0
 33 34  1  0
 34 35  2  0
 35 36  1  0
 36 37  2  0
 25 38  1  0
 38 39  2  0
 39 40  1  0
 40 41  2  0
 41 42  1  0
 42 43  2  0
 43 44  1  0
 44 45  2  0
 44 46  1  0
 46 47  1  0
 43 48  1  0
 48 49  1  0
  5 50  1  0
 50 51  2  0
 51 52  1  0
 51  2  1  0
 10  6  1  0
 16 11  1  0
 21 17  1  0
 39 22  1  0
 49 40  1  0
 31 26  1  0
 37 32  1  0
M  END
>  <Title>  (773) 
idABDSgen8

$$$$

     RDKit          2D

 33 36  0  0  0  0  0  0  0  0999 V2000
    2.3016  -14.6691    0.0000 C   0  0  0  0  0  0  0  0  0  0  0  0
    1.9133  -13.2203    0.0000 C   0  0  0  0  0  0  0  0  0  0  0  0
    0.4190  -13.0895    0.0000 C   0  0  0  0  0  0  0  0  0  0  0  0
   -0.6416  -12.0289    0.0000 C   0  0  0  0  0  0  0  0  0  0  0  0
   -0.7723  -10.5346    0.0000 N   0  0  0  0  0  0  0  0  0  0  0  0
    0.0880   -9.3058    0.0000 C   0  0  0  0  0  0  0  0  0  0  0  0
   -1.3609   -8.9176    0.0000 C   0  0  0  0  0  0  0  0  0  0  0  0
   -2.4215   -7.8570    0.0000 C   0  0  0  0  0  0  0  0  0  0  0  0
   -2.8098   -6.4081    0.0000 N   0  0  0  0  0  0  0  0  0  0  0  0
   -2.4215   -4.9592    0.0000 C   0  0  0  0  0  0  0  0  0  0  0  0
   -1.4392   -6.0928    0.0000 C   0  0  0  0  0  0  0  0  0  0  0  0
    0.0000   -6.5154    0.0000 C   0  0  0  0  0  0  0  0  0  0  0  0
    1.4392   -6.0928    0.0000 C   0  0  0  0  0  0  0  0  0  0  0  0
    2.4215   -4.9592    0.0000 C   0  0  0  0  0  0  0  0  0  0  0  0
    2.9858   -6.4081    0.0000 C   0  0  0  0  0  0  0  0  0  0  0  0
    2.5976   -7.8570    0.0000 C   0  0  0  0  0  0  0  0  0  0  0  0
    1.5369   -8.9176    0.0000 C   0  0  0  0  0  0  0  0  0  0  0  0
    2.8964   -9.5515    0.0000 C   0  0  0  0  0  0  0  0  0  0  0  0
    3.5303  -10.9110    0.0000 C   0  0  0  0  0  0  0  0  0  0  0  0
    3.1421  -12.3599    0.0000 C   0  0  0  0  0  0  0  0  0  0  0  0
    4.3708  -13.2203    0.0000 C   0  0  0  0  0  0  0  0  0  0  0  0
    2.6350   -3.4744    0.0000 C   0  0  0  0  0  0  0  0  0  0  0  0
    4.1197   -3.2610    0.0000 C   0  0  0  0  0  0  0  0  0  0  0  0
    2.0119   -2.1100    0.0000 N   0  0  0  0  0  0  0  0  0  0  0  0
    0.7500   -1.2990    0.0000 C   0  0  0  0  0  0  0  0  0  0  0  0
    1.5000    0.0000    0.0000 N   0  0  0  0  0  0  0  0  0  0  0  0
    0.7500    1.2990    0.0000 N   0  0  0  0  0  0  0  0  0  0  0  0
   -0.7500    1.2990    0.0000 N   0  0  0  0  0  0  0  0  0  0  0  0
   -1.5000    0.0000    0.0000 N   0  0  0  0  0  0  0  0  0  0  0  0
   -0.7500   -1.2990    0.0000 C   0  0  0  0  0  0  0  0  0  0  0  0
   -2.0119   -2.1100    0.0000 N   0  0  0  0  0  0  0  0  0  0  0  0
   -2.6350   -3.4744    0.0000 C   0  0  0  0  0  0  0  0  0  0  0  0
   -4.1197   -3.2610    0.0000 O   0  0  0  0  0  0  0  0  0  0  0  0
  1  2  1  0
  2  3  2  0
  3  4  1  0
  4  5  2  0
  5  6  1  0
  6  7  2  0
  7  8  1  0
  8  9  1  0
  9 10  1  0
 10 11  2  0
 11 12  1  0
 12 13  2  0
 13 14  1  0
 14 15  1  0
 15 16  2  0
 16 17  1  0
 17 18  2  0
 18 19  1  0
 19 20  2  0
 20 21  1  0
 14 22  1  0
 22 23  1  0
 22 24  2  0
 24 25  1  0
 25 26  2  0
 26 27  1  0
 27 28  2  0
 28 29  1  0
 29 30  2  0
 30 31  1  0
 31 32  1  0
 32 33  2  0
 20  2  1  0
 30 25  1  0
 17  6  1  0
 32 10  1  0
M  END
>  <Title>  (774) 
idABDTgen8

$$$$

     RDKit          2D

 19 19  0  0  0  0  0  0  0  0999 V2000
    5.8191    0.0000    0.0000 C   0  0  0  0  0  0  0  0  0  0  0  0
    4.3191    0.0000    0.0000 C   0  0  0  0  0  0  0  0  0  0  0  0
    4.0586   -1.4772    0.0000 C   0  0  0  0  0  0  0  0  0  0  0  0
    3.3086   -2.7762    0.0000 C   0  0  0  0  0  0  0  0  0  0  0  0
    2.1595   -3.7404    0.0000 C   0  0  0  0  0  0  0  0  0  0  0  0
    0.7500   -4.2535    0.0000 C   0  0  0  0  0  0  0  0  0  0  0  0
   -0.7500   -4.2535    0.0000 C   0  0  0  0  0  0  0  0  0  0  0  0
   -2.1595   -3.7404    0.0000 C   0  0  0  0  0  0  0  0  0  0  0  0
   -3.3086   -2.7762    0.0000 C   0  0  0  0  0  0  0  0  0  0  0  0
   -4.0586   -1.4772    0.0000 C   0  0  0  0  0  0  0  0  0  0  0  0
   -4.3191    0.0000    0.0000 C   0  0  0  0  0  0  0  0  0  0  0  0
   -4.0586    1.4772    0.0000 C   0  0  0  0  0  0  0  0  0  0  0  0
   -3.3086    2.7762    0.0000 C   0  0  0  0  0  0  0  0  0  0  0  0
   -2.1595    3.7404    0.0000 C   0  0  0  0  0  0  0  0  0  0  0  0
   -0.7500    4.2535    0.0000 C   0  0  0  0  0  0  0  0  0  0  0  0
    0.7500    4.2535    0.0000 C   0  0  0  0  0  0  0  0  0  0  0  0
    2.1595    3.7404    0.0000 C   0  0  0  0  0  0  0  0  0  0  0  0
    3.3086    2.7762    0.0000 C   0  0  0  0  0  0  0  0  0  0  0  0
    4.0586    1.4772    0.0000 C   0  0  0  0  0  0  0  0  0  0  0  0
  1  2  1  0
  2  3  2  0
  3  4  1  0
  4  5  2  0
  5  6  1  0
  6  7  2  0
  7  8  1  0
  8  9  2  0
  9 10  1  0
 10 11  2  0
 11 12  1  0
 12 13  2  0
 13 14  1  0
 14 15  2  0
 15 16  1  0
 16 17  2  0
 17 18  1  0
 18 19  2  0
 19  2  1  0
M  END
>  <Title>  (775) 
idABDUgen8

$$$$

     RDKit          2D

 17 18  0  0  0  0  0  0  0  0999 V2000
    3.0000   -5.1962    0.0000 O   0  0  0  0  0  0  0  0  0  0  0  0
    1.5000   -5.1962    0.0000 C   0  0  0  0  0  0  0  0  0  0  0  0
    0.7500   -3.8971    0.0000 N   0  0  0  0  0  0  0  0  0  0  0  0
    1.5000   -2.5981    0.0000 C   0  0  0  0  0  0  0  0  0  0  0  0
    0.7500   -1.2990    0.0000 C   0  0  0  0  0  0  0  0  0  0  0  0
    1.5000    0.0000    0.0000 C   0  0  0  0  0  0  0  0  0  0  0  0
    0.7500    1.2990    0.0000 C   0  0  0  0  0  0  0  0  0  0  0  0
   -0.7500    1.2990    0.0000 C   0  0  0  0  0  0  0  0  0  0  0  0
   -1.5000    0.0000    0.0000 C   0  0  0  0  0  0  0  0  0  0  0  0
   -0.7500   -1.2990    0.0000 C   0  0  0  0  0  0  0  0  0  0  0  0
    0.7500   -6.4952    0.0000 C   0  0  0  0  0  0  0  0  0  0  0  0
   -0.7500   -6.4952    0.0000 C   0  0  0  0  0  0  0  0  0  0  0  0
   -1.5000   -7.7942    0.0000 C   0  0  0  0  0  0  0  0  0  0  0  0
   -0.7500   -9.0933    0.0000 C   0  0  0  0  0  0  0  0  0  0  0  0
    0.7500   -9.0933    0.0000 C   0  0  0  0  0  0  0  0  0  0  0  0
    1.5000   -7.7942    0.0000 C   0  0  0  0  0  0  0  0  0  0  0  0
    3.0000   -7.7942    0.0000 O   0  0  0  0  0  0  0  0  0  0  0  0
  1  2  2  0
  2  3  1  0
  3  4  1  0
  4  5  1  0
  5  6  2  0
  6  7  1  0
  7  8  2  0
  8  9  1  0
  9 10  2  0
  2 11  1  0
 11 12  2  0
 12 13  1  0
 13 14  2  0
 14 15  1  0
 15 16  2  0
 16 17  1  0
 10  5  1  0
 16 11  1  0
M  END
>  <Title>  (776) 
idABDVgen8

$$$$

     RDKit          2D

 18 18  0  0  0  0  0  0  0  0999 V2000
    6.0944   -1.2990    0.0000 C   0  0  0  0  0  0  0  0  0  0  0  0
    5.3444    0.0000    0.0000 O   0  0  0  0  0  0  0  0  0  0  0  0
    3.8444    0.0000    0.0000 C   0  0  0  0  0  0  0  0  0  0  0  0
    3.5517   -1.4712    0.0000 C   0  0  0  0  0  0  0  0  0  0  0  0
    2.7184   -2.7184    0.0000 C   0  0  0  0  0  0  0  0  0  0  0  0
    1.4712   -3.5517    0.0000 C   0  0  0  0  0  0  0  0  0  0  0  0
   -0.0000   -3.8444    0.0000 C   0  0  0  0  0  0  0  0  0  0  0  0
   -1.4712   -3.5517    0.0000 C   0  0  0  0  0  0  0  0  0  0  0  0
   -2.7184   -2.7184    0.0000 C   0  0  0  0  0  0  0  0  0  0  0  0
   -3.5517   -1.4712    0.0000 C   0  0  0  0  0  0  0  0  0  0  0  0
   -3.8444    0.0000    0.0000 C   0  0  0  0  0  0  0  0  0  0  0  0
   -3.5517    1.4712    0.0000 C   0  0  0  0  0  0  0  0  0  0  0  0
   -2.7184    2.7184    0.0000 C   0  0  0  0  0  0  0  0  0  0  0  0
   -1.4712    3.5517    0.0000 C   0  0  0  0  0  0  0  0  0  0  0  0
    0.0000    3.8444    0.0000 C   0  0  0  0  0  0  0  0  0  0  0  0
    1.4712    3.5517    0.0000 C   0  0  0  0  0  0  0  0  0  0  0  0
    2.7184    2.7184    0.0000 C   0  0  0  0  0  0  0  0  0  0  0  0
    3.5517    1.4712    0.0000 C   0  0  0  0  0  0  0  0  0  0  0  0
  1  2  1  0
  2  3  1  0
  3  4  2  0
  4  5  1  0
  5  6  2  0
  6  7  1  0
  7  8  2  0
  8  9  1  0
  9 10  2  0
 10 11  1  0
 11 12  2  0
 12 13  1  0
 13 14  2  0
 14 15  1  0
 15 16  2  0
 16 17  1  0
 17 18  2  0
 18  3  1  0
M  END
>  <Title>  (777) 
idABDWgen8

$$$$

     RDKit          2D

 31 34  0  0  0  0  0  0  0  0999 V2000
    3.0000    0.0000    0.0000 N   0  0  0  0  0  0  0  0  0  0  0  0
    1.5000    0.0000    0.0000 C   0  0  0  0  0  0  0  0  0  0  0  0
    0.7500   -1.2990    0.0000 C   0  0  0  0  0  0  0  0  0  0  0  0
   -0.7500   -1.2990    0.0000 C   0  0  0  0  0  0  0  0  0  0  0  0
   -1.5000   -2.5981    0.0000 C   0  0  0  0  0  0  0  0  0  0  0  0
   -3.0000   -2.5981    0.0000 C   0  0  0  0  0  0  0  0  0  0  0  0
   -3.7500   -3.8971    0.0000 C   0  0  0  0  0  0  0  0  0  0  0  0
   -3.0000   -5.1962    0.0000 C   0  0  0  0  0  0  0  0  0  0  0  0
   -3.7500   -6.4952    0.0000 C   0  0  0  0  0  0  0  0  0  0  0  0
   -5.2500   -6.4952    0.0000 C   0  0  0  0  0  0  0  0  0  0  0  0
   -6.0000   -7.7942    0.0000 C   0  0  0  0  0  0  0  0  0  0  0  0
   -5.2500   -9.0933    0.0000 C   0  0  0  0  0  0  0  0  0  0  0  0
   -3.7500   -9.0933    0.0000 C   0  0  0  0  0  0  0  0  0  0  0  0
   -3.0000   -7.7942    0.0000 C   0  0  0  0  0  0  0  0  0  0  0  0
   -1.5000   -5.1962    0.0000 C   0  0  0  0  0  0  0  0  0  0  0  0
   -0.7500   -3.8971    0.0000 C   0  0  0  0  0  0  0  0  0  0  0  0
   -1.5000    0.0000    0.0000 C   0  0  0  0  0  0  0  0  0  0  0  0
   -0.7500    1.2990    0.0000 C   0  0  0  0  0  0  0  0  0  0  0  0
    0.7500    1.2990    0.0000 C   0  0  0  0  0  0  0  0  0  0  0  0
    1.5000    2.5981    0.0000 N   0  0  0  0  0  0  0  0  0  0  0  0
    0.7500    3.8971    0.0000 C   0  0  0  0  0  0  0  0  0  0  0  0
   -0.7500    3.8971    0.0000 O   0  0  0  0  0  0  0  0  0  0  0  0
    1.5000    5.1962    0.0000 N   0  0  0  0  0  0  0  0  0  0  0  0
    0.7500    6.4952    0.0000 C   0  0  0  0  0  0  0  0  0  0  0  0
    1.5000    7.7942    0.0000 C   0  0  0  0  0  0  0  0  0  0  0  0
    0.7500    9.0933    0.0000 C   0  0  0  0  0  0  0  0  0  0  0  0
    1.5000   10.3923    0.0000 C   0  0  0  0  0  0  0  0  0  0  0  0
    0.7500   11.6913    0.0000 C   0  0  0  0  0  0  0  0  0  0  0  0
   -0.7500   11.6913    0.0000 C   0  0  0  0  0  0  0  0  0  0  0  0
   -1.5000   10.3923    0.0000 C   0  0  0  0  0  0  0  0  0  0  0  0
   -0.7500    9.0933    0.0000 C   0  0  0  0  0  0  0  0  0  0  0  0
  1  2  1  0
  2  3  2  0
  3  4  1  0
  4  5  1  0
  5  6  2  0
  6  7  1  0
  7  8  2  0
  8  9  1  0
  9 10  2  0
 10 11  1  0
 11 12  2  0
 12 13  1  0
 13 14  2  0
  8 15  1  0
 15 16  2  0
  4 17  2  0
 17 18  1  0
 18 19  2  0
 19 20  1  0
 20 21  1  0
 21 22  2  0
 21 23  1  0
 23 24  1  0
 24 25  1  0
 25 26  1  0
 26 27  2  0
 27 28  1  0
 28 29  2  0
 29 30  1  0
 30 31  2  0
 19  2  1  0
 31 26  1  0
 16  5  1  0
 14  9  1  0
M  END
>  <Title>  (778) 
idABDXgen8

$$$$

     RDKit          2D

 49 56  0  0  0  0  0  0  0  0999 V2000
    3.0000    0.0000    0.0000 C   0  0  0  0  0  0  0  0  0  0  0  0
    1.5000    0.0000    0.0000 C   0  0  0  0  0  0  0  0  0  0  0  0
    0.7500   -1.2990    0.0000 C   0  0  0  0  0  0  0  0  0  0  0  0
   -0.7500   -1.2990    0.0000 C   0  0  0  0  0  0  0  0  0  0  0  0
   -1.5000    0.0000    0.0000 C   0  0  0  0  0  0  0  0  0  0  0  0
   -3.0000    0.0000    0.0000 C   0  0  0  0  0  0  0  0  0  0  0  0
   -3.8817   -1.2135    0.0000 N   0  0  0  0  0  0  0  0  0  0  0  0
   -5.3083   -0.7500    0.0000 N   0  0  0  0  0  0  0  0  0  0  0  0
   -5.3083    0.7500    0.0000 N   0  0  0  0  0  0  0  0  0  0  0  0
   -3.8817    1.2135    0.0000 N   0  0  0  0  0  0  0  0  0  0  0  0
   -3.4182    2.6401    0.0000 C   0  0  0  0  0  0  0  0  0  0  0  0
   -1.9509    2.9520    0.0000 C   0  0  0  0  0  0  0  0  0  0  0  0
   -1.4874    4.3786    0.0000 C   0  0  0  0  0  0  0  0  0  0  0  0
   -2.4911    5.4933    0.0000 C   0  0  0  0  0  0  0  0  0  0  0  0
   -2.0276    6.9199    0.0000 C   0  0  0  0  0  0  0  0  0  0  0  0
   -2.9093    8.1334    0.0000 N   0  0  0  0  0  0  0  0  0  0  0  0
   -2.0276    9.3469    0.0000 N   0  0  0  0  0  0  0  0  0  0  0  0
   -0.6010    8.8834    0.0000 N   0  0  0  0  0  0  0  0  0  0  0  0
   -0.6010    7.3834    0.0000 N   0  0  0  0  0  0  0  0  0  0  0  0
    0.6125    6.5017    0.0000 C   0  0  0  0  0  0  0  0  0  0  0  0
    0.4557    5.0099    0.0000 C   0  0  0  0  0  0  0  0  0  0  0  0
    1.6693    4.1283    0.0000 C   0  0  0  0  0  0  0  0  0  0  0  0
    3.0396    4.7384    0.0000 C   0  0  0  0  0  0  0  0  0  0  0  0
    3.1964    6.2301    0.0000 C   0  0  0  0  0  0  0  0  0  0  0  0
    1.9829    7.1118    0.0000 C   0  0  0  0  0  0  0  0  0  0  0  0
   -3.9583    5.1814    0.0000 C   0  0  0  0  0  0  0  0  0  0  0  0
   -4.4218    3.7548    0.0000 C   0  0  0  0  0  0  0  0  0  0  0  0
   -5.8891    3.4430    0.0000 N   0  0  0  0  0  0  0  0  0  0  0  0
   -7.1471    4.2599    0.0000 C   0  0  0  0  0  0  0  0  0  0  0  0
   -7.9640    3.0019    0.0000 C   0  0  0  0  0  0  0  0  0  0  0  0
   -9.4313    2.6900    0.0000 C   0  0  0  0  0  0  0  0  0  0  0  0
   -9.8948    1.2635    0.0000 O   0  0  0  0  0  0  0  0  0  0  0  0
  -10.4350    3.8048    0.0000 N   0  0  0  0  0  0  0  0  0  0  0  0
  -11.9022    3.4929    0.0000 C   0  0  0  0  0  0  0  0  0  0  0  0
  -12.5123    2.1226    0.0000 N   0  0  0  0  0  0  0  0  0  0  0  0
  -14.0041    2.2794    0.0000 N   0  0  0  0  0  0  0  0  0  0  0  0
  -14.3159    3.7466    0.0000 N   0  0  0  0  0  0  0  0  0  0  0  0
  -13.0169    4.4966    0.0000 N   0  0  0  0  0  0  0  0  0  0  0  0
  -12.8601    5.9884    0.0000 C   0  0  0  0  0  0  0  0  0  0  0  0
  -11.4898    6.5985    0.0000 C   0  0  0  0  0  0  0  0  0  0  0  0
  -11.3330    8.0903    0.0000 C   0  0  0  0  0  0  0  0  0  0  0  0
  -12.5465    8.9719    0.0000 C   0  0  0  0  0  0  0  0  0  0  0  0
  -13.9168    8.3618    0.0000 C   0  0  0  0  0  0  0  0  0  0  0  0
  -14.0736    6.8701    0.0000 C   0  0  0  0  0  0  0  0  0  0  0  0
   -6.7060    2.1850    0.0000 C   0  0  0  0  0  0  0  0  0  0  0  0
   -6.3942    0.7177    0.0000 O   0  0  0  0  0  0  0  0  0  0  0  0
   -0.7500    1.2990    0.0000 N   0  0  0  0  0  0  0  0  0  0  0  0
    0.7500    1.2990    0.0000 C   0  0  0  0  0  0  0  0  0  0  0  0
    1.5000    2.5981    0.0000 O   0  0  0  0  0  0  0  0  0  0  0  0
  1  2  1  0
  2  3  2  0
  3  4  1  0
  4  5  2  0
  5  6  1  0
  6  7  2  0
  7  8  1  0
  8  9  2  0
  9 10  1  0
 10 11  1  0
 11 12  2  0
 12 13  1  0
 13 14  2  0
 14 15  1  0
 15 16  2  0
 16 17  1  0
 17 18  2  0
 18 19  1  0
 19 20  1  0
 20 21  2  0
 21 22  1  0
 22 23  2  0
 23 24  1  0
 24 25  2  0
 14 26  1  0
 26 27  2  0
 27 28  1  0
 28 29  1  0
 29 30  2  0
 30 31  1  0
 31 32  2  0
 31 33  1  0
 33 34  1  0
 34 35  2  0
 35 36  1  0
 36 37  2  0
 37 38  1  0
 38 39  1  0
 39 40  2  0
 40 41  1  0
 41 42  2  0
 42 43  1  0
 43 44  2  0
 30 45  1  0
 45 46  2  0
  5 47  1  0
 47 48  1  0
 48 49  2  0
 48  2  1  0
 10  6  1  0
 27 11  1  0
 45 28  1  0
 19 15  1  0
 25 20  1  0
 38 34  1  0
 44 39  1  0
M  END
>  <Title>  (779) 
idABDYgen8

$$$$

     RDKit          2D

 15 15  0  0  0  0  0  0  0  0999 V2000
    5.1478   -1.2990    0.0000 C   0  0  0  0  0  0  0  0  0  0  0  0
    4.3978    0.0000    0.0000 C   0  0  0  0  0  0  0  0  0  0  0  0
    2.8978    0.0000    0.0000 C   0  0  0  0  0  0  0  0  0  0  0  0
    2.5095   -1.4489    0.0000 N   0  0  0  0  0  0  0  0  0  0  0  0
    1.4489   -2.5095    0.0000 C   0  0  0  0  0  0  0  0  0  0  0  0
   -0.0000   -2.8978    0.0000 C   0  0  0  0  0  0  0  0  0  0  0  0
   -1.4489   -2.5095    0.0000 C   0  0  0  0  0  0  0  0  0  0  0  0
   -2.5095   -1.4489    0.0000 C   0  0  0  0  0  0  0  0  0  0  0  0
   -2.8978    0.0000    0.0000 C   0  0  0  0  0  0  0  0  0  0  0  0
   -2.5095    1.4489    0.0000 C   0  0  0  0  0  0  0  0  0  0  0  0
   -1.4489    2.5095    0.0000 C   0  0  0  0  0  0  0  0  0  0  0  0
    0.0000    2.8978    0.0000 C   0  0  0  0  0  0  0  0  0  0  0  0
    1.4489    2.5095    0.0000 C   0  0  0  0  0  0  0  0  0  0  0  0
    2.5095    1.4489    0.0000 C   0  0  0  0  0  0  0  0  0  0  0  0
    3.8086    2.1989    0.0000 O   0  0  0  0  0  0  0  0  0  0  0  0
  1  2  1  0
  2  3  1  0
  3  4  2  0
  4  5  1  0
  5  6  2  0
  6  7  1  0
  7  8  2  0
  8  9  1  0
  9 10  2  0
 10 11  1  0
 11 12  2  0
 12 13  1  0
 13 14  2  0
 14 15  1  0
 14  3  1  0
M  END
>  <Title>  (780) 
idABDZgen8

$$$$

     RDKit          2D

 39 44  0  0  0  0  0  0  0  0999 V2000
    4.8187    6.0424    0.0000 C   0  0  0  0  0  0  0  0  0  0  0  0
    3.8835    4.8697    0.0000 C   0  0  0  0  0  0  0  0  0  0  0  0
    4.4315    3.4734    0.0000 C   0  0  0  0  0  0  0  0  0  0  0  0
    3.4962    2.3006    0.0000 C   0  0  0  0  0  0  0  0  0  0  0  0
    2.0130    2.5242    0.0000 C   0  0  0  0  0  0  0  0  0  0  0  0
    1.0777    1.3515    0.0000 N   0  0  0  0  0  0  0  0  0  0  0  0
    1.7286    0.0000    0.0000 C   0  0  0  0  0  0  0  0  0  0  0  0
    1.0777   -1.3515    0.0000 C   0  0  0  0  0  0  0  0  0  0  0  0
   -0.3846   -1.6852    0.0000 C   0  0  0  0  0  0  0  0  0  0  0  0
   -1.5574   -0.7500    0.0000 C   0  0  0  0  0  0  0  0  0  0  0  0
   -1.5574    0.7500    0.0000 C   0  0  0  0  0  0  0  0  0  0  0  0
   -0.3846    1.6852    0.0000 C   0  0  0  0  0  0  0  0  0  0  0  0
   -0.7184    3.1476    0.0000 N   0  0  0  0  0  0  0  0  0  0  0  0
    0.3812    4.1679    0.0000 N   0  0  0  0  0  0  0  0  0  0  0  0
    0.0474    5.6303    0.0000 N   0  0  0  0  0  0  0  0  0  0  0  0
   -1.3860    6.0724    0.0000 N   0  0  0  0  0  0  0  0  0  0  0  0
   -2.4856    5.0522    0.0000 N   0  0  0  0  0  0  0  0  0  0  0  0
   -2.1518    3.5898    0.0000 N   0  0  0  0  0  0  0  0  0  0  0  0
   -3.2514    2.5695    0.0000 C   0  0  0  0  0  0  0  0  0  0  0  0
   -4.6847    3.0116    0.0000 C   0  0  0  0  0  0  0  0  0  0  0  0
   -5.7843    1.9914    0.0000 C   0  0  0  0  0  0  0  0  0  0  0  0
   -5.4505    0.5290    0.0000 C   0  0  0  0  0  0  0  0  0  0  0  0
   -6.5501   -0.4913    0.0000 C   0  0  0  0  0  0  0  0  0  0  0  0
   -6.1080   -1.9246    0.0000 C   0  0  0  0  0  0  0  0  0  0  0  0
   -6.9529   -3.1640    0.0000 C   0  0  0  0  0  0  0  0  0  0  0  0
   -8.4487   -3.2761    0.0000 N   0  0  0  0  0  0  0  0  0  0  0  0
   -9.4690   -2.1765    0.0000 N   0  0  0  0  0  0  0  0  0  0  0  0
   -9.2454   -0.6933    0.0000 N   0  0  0  0  0  0  0  0  0  0  0  0
   -7.9464    0.0567    0.0000 N   0  0  0  0  0  0  0  0  0  0  0  0
   -8.0585    1.5525    0.0000 C   0  0  0  0  0  0  0  0  0  0  0  0
   -6.8191    2.3975    0.0000 C   0  0  0  0  0  0  0  0  0  0  0  0
   -6.9312    3.8933    0.0000 C   0  0  0  0  0  0  0  0  0  0  0  0
   -8.2827    4.5442    0.0000 C   0  0  0  0  0  0  0  0  0  0  0  0
   -9.5220    3.6992    0.0000 C   0  0  0  0  0  0  0  0  0  0  0  0
   -9.4100    2.2034    0.0000 C   0  0  0  0  0  0  0  0  0  0  0  0
   -4.0172    0.0868    0.0000 C   0  0  0  0  0  0  0  0  0  0  0  0
   -2.9176    1.1071    0.0000 C   0  0  0  0  0  0  0  0  0  0  0  0
    1.4650    3.9205    0.0000 C   0  0  0  0  0  0  0  0  0  0  0  0
    2.4002    5.0933    0.0000 N   0  0  0  0  0  0  0  0  0  0  0  0
  1  2  1  0
  2  3  2  0
  3  4  1  0
  4  5  2  0
  5  6  1  0
  6  7  1  0
  7  8  2  0
  8  9  1  0
  9 10  2  0
 10 11  1  0
 11 12  2  0
 12 13  1  0
 13 14  1  0
 14 15  2  0
 15 16  1  0
 16 17  2  0
 17 18  1  0
 18 19  1  0
 19 20  2  0
 20 21  1  0
 21 22  2  0
 22 23  1  0
 23 24  2  0
 24 25  1  0
 25 26  2  0
 26 27  1  0
 27 28  2  0
 28 29  1  0
 29 30  1  0
 30 31  2  0
 31 32  1  0
 32 33  2  0
 33 34  1  0
 34 35  2  0
 22 36  1  0
 36 37  2  0
  5 38  1  0
 38 39  2  0
 39  2  1  0
 12  6  1  0
 18 13  1  0
 37 19  1  0
 29 23  1  0
 35 30  1  0
M  END
>  <Title>  (781) 
idABEAgen8

$$$$

     RDKit          2D

 54 61  0  0  0  0  0  0  0  0999 V2000
    3.8066    9.2988    0.0000 C   0  0  0  0  0  0  0  0  0  0  0  0
    2.5930    8.4172    0.0000 C   0  0  0  0  0  0  0  0  0  0  0  0
    2.5930    6.9172    0.0000 C   0  0  0  0  0  0  0  0  0  0  0  0
    1.1664    6.4536    0.0000 C   0  0  0  0  0  0  0  0  0  0  0  0
    0.2848    7.6672    0.0000 C   0  0  0  0  0  0  0  0  0  0  0  0
   -1.2152    7.6672    0.0000 C   0  0  0  0  0  0  0  0  0  0  0  0
   -2.0969    8.8807    0.0000 N   0  0  0  0  0  0  0  0  0  0  0  0
   -3.5235    8.4172    0.0000 N   0  0  0  0  0  0  0  0  0  0  0  0
   -3.5235    6.9172    0.0000 N   0  0  0  0  0  0  0  0  0  0  0  0
   -2.0969    6.4536    0.0000 N   0  0  0  0  0  0  0  0  0  0  0  0
   -1.6334    5.0270    0.0000 C   0  0  0  0  0  0  0  0  0  0  0  0
   -0.1343    4.9747    0.0000 C   0  0  0  0  0  0  0  0  0  0  0  0
    0.9804    3.9710    0.0000 C   0  0  0  0  0  0  0  0  0  0  0  0
    1.1892    2.4856    0.0000 C   0  0  0  0  0  0  0  0  0  0  0  0
    2.6564    2.1737    0.0000 C   0  0  0  0  0  0  0  0  0  0  0  0
    3.1199    0.7471    0.0000 C   0  0  0  0  0  0  0  0  0  0  0  0
    4.5871    0.4353    0.0000 C   0  0  0  0  0  0  0  0  0  0  0  0
    5.5908    1.5500    0.0000 C   0  0  0  0  0  0  0  0  0  0  0  0
    7.0581    1.2381    0.0000 C   0  0  0  0  0  0  0  0  0  0  0  0
    8.0618    2.3528    0.0000 O   0  0  0  0  0  0  0  0  0  0  0  0
    7.5216   -0.1885    0.0000 N   0  0  0  0  0  0  0  0  0  0  0  0
    8.9888   -0.5003    0.0000 O   0  0  0  0  0  0  0  0  0  0  0  0
    5.1273    2.9766    0.0000 N   0  0  0  0  0  0  0  0  0  0  0  0
    3.6601    3.2884    0.0000 C   0  0  0  0  0  0  0  0  0  0  0  0
    3.1966    4.7150    0.0000 O   0  0  0  0  0  0  0  0  0  0  0  0
    0.3943    1.2135    0.0000 C   0  0  0  0  0  0  0  0  0  0  0  0
    1.2760    0.0000    0.0000 N   0  0  0  0  0  0  0  0  0  0  0  0
    0.3943   -1.2135    0.0000 N   0  0  0  0  0  0  0  0  0  0  0  0
   -1.0323   -0.7500    0.0000 N   0  0  0  0  0  0  0  0  0  0  0  0
   -1.0323    0.7500    0.0000 N   0  0  0  0  0  0  0  0  0  0  0  0
   -2.4231    1.3119    0.0000 C   0  0  0  0  0  0  0  0  0  0  0  0
   -3.8248    0.7779    0.0000 C   0  0  0  0  0  0  0  0  0  0  0  0
   -5.1163    1.5408    0.0000 C   0  0  0  0  0  0  0  0  0  0  0  0
   -5.3250    3.0262    0.0000 C   0  0  0  0  0  0  0  0  0  0  0  0
   -6.7539    3.4826    0.0000 C   0  0  0  0  0  0  0  0  0  0  0  0
   -7.0731    4.9482    0.0000 O   0  0  0  0  0  0  0  0  0  0  0  0
   -7.8636    2.4733    0.0000 N   0  0  0  0  0  0  0  0  0  0  0  0
   -9.2925    2.9297    0.0000 C   0  0  0  0  0  0  0  0  0  0  0  0
   -9.7631    4.3540    0.0000 N   0  0  0  0  0  0  0  0  0  0  0  0
  -11.2631    4.3465    0.0000 N   0  0  0  0  0  0  0  0  0  0  0  0
  -11.7195    2.9176    0.0000 N   0  0  0  0  0  0  0  0  0  0  0  0
  -10.5016    2.0420    0.0000 N   0  0  0  0  0  0  0  0  0  0  0  0
  -10.4941    0.5420    0.0000 C   0  0  0  0  0  0  0  0  0  0  0  0
   -9.1913   -0.2015    0.0000 C   0  0  0  0  0  0  0  0  0  0  0  0
   -9.1839   -1.7015    0.0000 C   0  0  0  0  0  0  0  0  0  0  0  0
  -10.4792   -2.4579    0.0000 C   0  0  0  0  0  0  0  0  0  0  0  0
  -11.7819   -1.7144    0.0000 C   0  0  0  0  0  0  0  0  0  0  0  0
  -11.7894   -0.2144    0.0000 C   0  0  0  0  0  0  0  0  0  0  0  0
   -4.2938    4.1155    0.0000 C   0  0  0  0  0  0  0  0  0  0  0  0
   -2.8154    4.1036    0.0000 C   0  0  0  0  0  0  0  0  0  0  0  0
   -3.1273    2.6363    0.0000 C   0  0  0  0  0  0  0  0  0  0  0  0
   -4.6127    2.4276    0.0000 O   0  0  0  0  0  0  0  0  0  0  0  0
    1.1664    8.8807    0.0000 C   0  0  0  0  0  0  0  0  0  0  0  0
    0.7029   10.3073    0.0000 O   0  0  0  0  0  0  0  0  0  0  0  0
  1  2  1  0
  2  3  2  0
  3  4  1  0
  4  5  2  0
  5  6  1  0
  6  7  2  0
  7  8  1  0
  8  9  2  0
  9 10  1  0
 10 11  1  0
 11 12  2  0
 12 13  1  0
 13 14  2  0
 14 15  1  0
 15 16  2  0
 16 17  1  0
 17 18  2  0
 18 19  1  0
 19 20  2  0
 19 21  1  0
 21 22  1  0
 18 23  1  0
 23 24  1  0
 24 25  2  0
 14 26  1  0
 26 27  2  0
 27 28  1  0
 28 29  2  0
 29 30  1  0
 30 31  1  0
 31 32  2  0
 32 33  1  0
 33 34  2  0
 34 35  1  0
 35 36  2  0
 35 37  1  0
 37 38  1  0
 38 39  2  0
 39 40  1  0
 40 41  2  0
 41 42  1  0
 42 43  1  0
 43 44  2  0
 44 45  1  0
 45 46  2  0
 46 47  1  0
 47 48  2  0
 34 49  1  0
 49 50  2  0
 50 51  1  0
 51 52  2  0
  5 53  1  0
 53 54  2  0
 53  2  1  0
 10  6  1  0
 50 11  1  0
 24 15  1  0
 30 26  1  0
 51 31  1  0
 42 38  1  0
 48 43  1  0
M  END
>  <Title>  (782) 
idABEBgen8

$$$$

     RDKit          2D

 38 38  0  0  0  0  0  0  0  0999 V2000
   10.8553   -1.2990    0.0000 C   0  0  0  0  0  0  0  0  0  0  0  0
   10.1053    0.0000    0.0000 O   0  0  0  0  0  0  0  0  0  0  0  0
    8.6053    0.0000    0.0000 C   0  0  0  0  0  0  0  0  0  0  0  0
    8.4746   -1.4943    0.0000 C   0  0  0  0  0  0  0  0  0  0  0  0
    8.0863   -2.9432    0.0000 C   0  0  0  0  0  0  0  0  0  0  0  0
    7.4524   -4.3026    0.0000 C   0  0  0  0  0  0  0  0  0  0  0  0
    6.5920   -5.5314    0.0000 C   0  0  0  0  0  0  0  0  0  0  0  0
    5.5314   -6.5920    0.0000 C   0  0  0  0  0  0  0  0  0  0  0  0
    4.3026   -7.4524    0.0000 C   0  0  0  0  0  0  0  0  0  0  0  0
    2.9432   -8.0863    0.0000 C   0  0  0  0  0  0  0  0  0  0  0  0
    1.4943   -8.4746    0.0000 C   0  0  0  0  0  0  0  0  0  0  0  0
   -0.0000   -8.6053    0.0000 C   0  0  0  0  0  0  0  0  0  0  0  0
   -1.4943   -8.4746    0.0000 C   0  0  0  0  0  0  0  0  0  0  0  0
   -2.9432   -8.0863    0.0000 C   0  0  0  0  0  0  0  0  0  0  0  0
   -4.3026   -7.4524    0.0000 C   0  0  0  0  0  0  0  0  0  0  0  0
   -5.5314   -6.5920    0.0000 C   0  0  0  0  0  0  0  0  0  0  0  0
   -6.5920   -5.5314    0.0000 C   0  0  0  0  0  0  0  0  0  0  0  0
   -7.4524   -4.3026    0.0000 C   0  0  0  0  0  0  0  0  0  0  0  0
   -8.0863   -2.9432    0.0000 C   0  0  0  0  0  0  0  0  0  0  0  0
   -8.4746   -1.4943    0.0000 C   0  0  0  0  0  0  0  0  0  0  0  0
   -8.6053    0.0000    0.0000 C   0  0  0  0  0  0  0  0  0  0  0  0
   -8.4746    1.4943    0.0000 C   0  0  0  0  0  0  0  0  0  0  0  0
   -8.0863    2.9432    0.0000 C   0  0  0  0  0  0  0  0  0  0  0  0
   -7.4524    4.3026    0.0000 C   0  0  0  0  0  0  0  0  0  0  0  0
   -6.5920    5.5314    0.0000 C   0  0  0  0  0  0  0  0  0  0  0  0
   -5.5314    6.5920    0.0000 C   0  0  0  0  0  0  0  0  0  0  0  0
   -4.3026    7.4524    0.0000 C   0  0  0  0  0  0  0  0  0  0  0  0
   -2.9432    8.0863    0.0000 C   0  0  0  0  0  0  0  0  0  0  0  0
   -1.4943    8.4746    0.0000 C   0  0  0  0  0  0  0  0  0  0  0  0
    0.0000    8.6053    0.0000 C   0  0  0  0  0  0  0  0  0  0  0  0
    1.4943    8.4746    0.0000 C   0  0  0  0  0  0  0  0  0  0  0  0
    2.9432    8.0863    0.0000 C   0  0  0  0  0  0  0  0  0  0  0  0
    4.3026    7.4524    0.0000 C   0  0  0  0  0  0  0  0  0  0  0  0
    5.5314    6.5920    0.0000 C   0  0  0  0  0  0  0  0  0  0  0  0
    6.5920    5.5314    0.0000 C   0  0  0  0  0  0  0  0  0  0  0  0
    7.4524    4.3026    0.0000 C   0  0  0  0  0  0  0  0  0  0  0  0
    8.0863    2.9432    0.0000 C   0  0  0  0  0  0  0  0  0  0  0  0
    8.4746    1.4943    0.0000 C   0  0  0  0  0  0  0  0  0  0  0  0
  1  2  1  0
  2  3  1  0
  3  4  2  0
  4  5  1  0
  5  6  2  0
  6  7  1  0
  7  8  2  0
  8  9  1  0
  9 10  2  0
 10 11  1  0
 11 12  2  0
 12 13  1  0
 13 14  2  0
 14 15  1  0
 15 16  2  0
 16 17  1  0
 17 18  2  0
 18 19  1  0
 19 20  2  0
 20 21  1  0
 21 22  2  0
 22 23  1  0
 23 24  2  0
 24 25  1  0
 25 26  2  0
 26 27  1  0
 27 28  2  0
 28 29  1  0
 29 30  2  0
 30 31  1  0
 31 32  2  0
 32 33  1  0
 33 34  2  0
 34 35  1  0
 35 36  2  0
 36 37  1  0
 37 38  2  0
 38  3  1  0
M  END
>  <Title>  (783) 
idABECgen8

$$$$

     RDKit          2D

 15 15  0  0  0  0  0  0  0  0999 V2000
    6.1771   -1.2990    0.0000 C   0  0  0  0  0  0  0  0  0  0  0  0
    4.6771   -1.2990    0.0000 C   0  0  0  0  0  0  0  0  0  0  0  0
    3.9271   -2.5981    0.0000 O   0  0  0  0  0  0  0  0  0  0  0  0
    3.9271    0.0000    0.0000 N   0  0  0  0  0  0  0  0  0  0  0  0
    2.4271    0.0000    0.0000 C   0  0  0  0  0  0  0  0  0  0  0  0
    1.9635   -1.4266    0.0000 C   0  0  0  0  0  0  0  0  0  0  0  0
    0.7500   -2.3083    0.0000 C   0  0  0  0  0  0  0  0  0  0  0  0
   -0.7500   -2.3083    0.0000 C   0  0  0  0  0  0  0  0  0  0  0  0
   -1.9635   -1.4266    0.0000 C   0  0  0  0  0  0  0  0  0  0  0  0
   -2.4271    0.0000    0.0000 C   0  0  0  0  0  0  0  0  0  0  0  0
   -1.9635    1.4266    0.0000 C   0  0  0  0  0  0  0  0  0  0  0  0
   -0.7500    2.3083    0.0000 C   0  0  0  0  0  0  0  0  0  0  0  0
    0.7500    2.3083    0.0000 C   0  0  0  0  0  0  0  0  0  0  0  0
    1.9635    1.4266    0.0000 C   0  0  0  0  0  0  0  0  0  0  0  0
    3.1771    2.3083    0.0000 O   0  0  0  0  0  0  0  0  0  0  0  0
  1  2  1  0
  2  3  2  0
  2  4  1  0
  4  5  1  0
  5  6  2  0
  6  7  1  0
  7  8  2  0
  8  9  1  0
  9 10  2  0
 10 11  1  0
 11 12  2  0
 12 13  1  0
 13 14  2  0
 14 15  1  0
 14  5  1  0
M  END
>  <Title>  (784) 
idABEDgen8

$$$$

     RDKit          2D

 29 30  0  0  0  0  0  0  0  0999 V2000
    6.7700    0.0000    0.0000 C   0  0  0  0  0  0  0  0  0  0  0  0
    5.2700    0.0000    0.0000 C   0  0  0  0  0  0  0  0  0  0  0  0
    5.0565   -1.4847    0.0000 C   0  0  0  0  0  0  0  0  0  0  0  0
    4.4334   -2.8492    0.0000 C   0  0  0  0  0  0  0  0  0  0  0  0
    3.4511   -3.9828    0.0000 C   0  0  0  0  0  0  0  0  0  0  0  0
    2.1892   -4.7938    0.0000 C   0  0  0  0  0  0  0  0  0  0  0  0
    0.7500   -5.2164    0.0000 C   0  0  0  0  0  0  0  0  0  0  0  0
   -0.7500   -5.2164    0.0000 C   0  0  0  0  0  0  0  0  0  0  0  0
   -2.1892   -4.7938    0.0000 C   0  0  0  0  0  0  0  0  0  0  0  0
   -3.4511   -3.9828    0.0000 C   0  0  0  0  0  0  0  0  0  0  0  0
   -4.4334   -2.8492    0.0000 C   0  0  0  0  0  0  0  0  0  0  0  0
   -5.0565   -1.4847    0.0000 C   0  0  0  0  0  0  0  0  0  0  0  0
   -5.2700    0.0000    0.0000 C   0  0  0  0  0  0  0  0  0  0  0  0
   -5.0565    1.4847    0.0000 C   0  0  0  0  0  0  0  0  0  0  0  0
   -4.4334    2.8492    0.0000 C   0  0  0  0  0  0  0  0  0  0  0  0
   -3.4511    3.9828    0.0000 C   0  0  0  0  0  0  0  0  0  0  0  0
   -2.1892    4.7938    0.0000 C   0  0  0  0  0  0  0  0  0  0  0  0
   -0.7500    5.2164    0.0000 C   0  0  0  0  0  0  0  0  0  0  0  0
    0.7500    5.2164    0.0000 C   0  0  0  0  0  0  0  0  0  0  0  0
    2.1892    4.7938    0.0000 C   0  0  0  0  0  0  0  0  0  0  0  0
    3.4511    3.9828    0.0000 C   0  0  0  0  0  0  0  0  0  0  0  0
    4.4334    2.8492    0.0000 C   0  0  0  0  0  0  0  0  0  0  0  0
    5.0565    1.4847    0.0000 C   0  0  0  0  0  0  0  0  0  0  0  0
    6.4958    1.9073    0.0000 N   0  0  0  0  0  0  0  0  0  0  0  0
    6.9998    3.3201    0.0000 N   0  0  0  0  0  0  0  0  0  0  0  0
    8.4992    3.2773    0.0000 N   0  0  0  0  0  0  0  0  0  0  0  0
    8.9218    1.8380    0.0000 N   0  0  0  0  0  0  0  0  0  0  0  0
    7.6836    0.9914    0.0000 C   0  0  0  0  0  0  0  0  0  0  0  0
    7.6408   -0.5080    0.0000 C   0  0  0  0  0  0  0  0  0  0  0  0
  1  2  1  0
  2  3  2  0
  3  4  1  0
  4  5  2  0
  5  6  1  0
  6  7  2  0
  7  8  1  0
  8  9  2  0
  9 10  1  0
 10 11  2  0
 11 12  1  0
 12 13  2  0
 13 14  1  0
 14 15  2  0
 15 16  1  0
 16 17  2  0
 17 18  1  0
 18 19  2  0
 19 20  1  0
 20 21  2  0
 21 22  1  0
 22 23  2  0
 23 24  1  0
 24 25  1  0
 25 26  2  0
 26 27  1  0
 27 28  2  0
 28 29  1  0
 23  2  1  0
 28 24  1  0
M  END
>  <Title>  (785) 
idABEEgen8

$$$$

     RDKit          2D

 28 31  0  0  0  0  0  0  0  0999 V2000
    3.7500    1.2990    0.0000 C   0  0  0  0  0  0  0  0  0  0  0  0
    3.0000    0.0000    0.0000 O   0  0  0  0  0  0  0  0  0  0  0  0
    1.5000    0.0000    0.0000 C   0  0  0  0  0  0  0  0  0  0  0  0
    0.7500    1.2990    0.0000 C   0  0  0  0  0  0  0  0  0  0  0  0
   -0.7500    1.2990    0.0000 C   0  0  0  0  0  0  0  0  0  0  0  0
   -1.5000    0.0000    0.0000 C   0  0  0  0  0  0  0  0  0  0  0  0
   -3.0000    0.0000    0.0000 N   0  0  0  0  0  0  0  0  0  0  0  0
   -3.8817   -1.2135    0.0000 N   0  0  0  0  0  0  0  0  0  0  0  0
   -5.3083   -0.7500    0.0000 N   0  0  0  0  0  0  0  0  0  0  0  0
   -5.3083    0.7500    0.0000 N   0  0  0  0  0  0  0  0  0  0  0  0
   -3.8817    1.2135    0.0000 C   0  0  0  0  0  0  0  0  0  0  0  0
   -3.4182    2.6401    0.0000 C   0  0  0  0  0  0  0  0  0  0  0  0
   -1.9509    2.9520    0.0000 C   0  0  0  0  0  0  0  0  0  0  0  0
   -1.4874    4.3786    0.0000 C   0  0  0  0  0  0  0  0  0  0  0  0
   -2.4911    5.4933    0.0000 N   0  0  0  0  0  0  0  0  0  0  0  0
   -3.9583    5.1814    0.0000 C   0  0  0  0  0  0  0  0  0  0  0  0
   -4.4218    3.7548    0.0000 C   0  0  0  0  0  0  0  0  0  0  0  0
   -5.8891    3.4430    0.0000 C   0  0  0  0  0  0  0  0  0  0  0  0
   -6.8928    4.5577    0.0000 C   0  0  0  0  0  0  0  0  0  0  0  0
   -8.3600    4.2458    0.0000 C   0  0  0  0  0  0  0  0  0  0  0  0
   -8.8235    2.8192    0.0000 C   0  0  0  0  0  0  0  0  0  0  0  0
  -10.2907    2.5074    0.0000 C   0  0  0  0  0  0  0  0  0  0  0  0
   -7.8198    1.7045    0.0000 C   0  0  0  0  0  0  0  0  0  0  0  0
   -8.2833    0.2779    0.0000 O   0  0  0  0  0  0  0  0  0  0  0  0
   -6.3526    2.0164    0.0000 N   0  0  0  0  0  0  0  0  0  0  0  0
   -0.7500   -1.2990    0.0000 C   0  0  0  0  0  0  0  0  0  0  0  0
   -1.5000   -2.5981    0.0000 O   0  0  0  0  0  0  0  0  0  0  0  0
    0.7500   -1.2990    0.0000 N   0  0  0  0  0  0  0  0  0  0  0  0
  1  2  1  0
  2  3  1  0
  3  4  2  0
  4  5  1  0
  5  6  2  0
  6  7  1  0
  7  8  1  0
  8  9  2  0
  9 10  1  0
 10 11  2  0
 11 12  1  0
 12 13  1  0
 13 14  1  0
 14 15  1  0
 15 16  1  0
 16 17  1  0
 17 18  1  0
 18 19  2  0
 19 20  1  0
 20 21  2  0
 21 22  1  0
 21 23  1  0
 23 24  2  0
 23 25  1  0
  6 26  1  0
 26 27  2  0
 26 28  1  0
 28  3  1  0
 11  7  1  0
 17 12  1  0
 25 18  1  0
M  END
>  <Title>  (786) 
idABEFgen8

$$$$

     RDKit          2D

 65 75  0  0  0  0  0  0  0  0999 V2000
    3.7500   -1.2990    0.0000 C   0  0  0  0  0  0  0  0  0  0  0  0
    3.0000    0.0000    0.0000 O   0  0  0  0  0  0  0  0  0  0  0  0
    1.5000    0.0000    0.0000 C   0  0  0  0  0  0  0  0  0  0  0  0
    0.7500   -1.2990    0.0000 C   0  0  0  0  0  0  0  0  0  0  0  0
   -0.7500   -1.2990    0.0000 C   0  0  0  0  0  0  0  0  0  0  0  0
   -1.5000    0.0000    0.0000 C   0  0  0  0  0  0  0  0  0  0  0  0
   -3.0000    0.0000    0.0000 C   0  0  0  0  0  0  0  0  0  0  0  0
   -3.8817   -1.2135    0.0000 N   0  0  0  0  0  0  0  0  0  0  0  0
   -5.3083   -0.7500    0.0000 N   0  0  0  0  0  0  0  0  0  0  0  0
   -5.3083    0.7500    0.0000 N   0  0  0  0  0  0  0  0  0  0  0  0
   -3.8817    1.2135    0.0000 N   0  0  0  0  0  0  0  0  0  0  0  0
   -3.4182    2.6401    0.0000 C   0  0  0  0  0  0  0  0  0  0  0  0
   -1.9509    2.9520    0.0000 C   0  0  0  0  0  0  0  0  0  0  0  0
   -1.4874    4.3786    0.0000 C   0  0  0  0  0  0  0  0  0  0  0  0
   -2.4911    5.4933    0.0000 C   0  0  0  0  0  0  0  0  0  0  0  0
   -2.0276    6.9199    0.0000 C   0  0  0  0  0  0  0  0  0  0  0  0
   -3.0313    8.0346    0.0000 O   0  0  0  0  0  0  0  0  0  0  0  0
   -0.5604    7.2317    0.0000 N   0  0  0  0  0  0  0  0  0  0  0  0
   -0.0968    8.6583    0.0000 C   0  0  0  0  0  0  0  0  0  0  0  0
   -0.9785    9.8718    0.0000 N   0  0  0  0  0  0  0  0  0  0  0  0
   -0.0968   11.0854    0.0000 N   0  0  0  0  0  0  0  0  0  0  0  0
    1.3298   10.6218    0.0000 N   0  0  0  0  0  0  0  0  0  0  0  0
    1.3298    9.1218    0.0000 N   0  0  0  0  0  0  0  0  0  0  0  0
    2.5433    8.2402    0.0000 C   0  0  0  0  0  0  0  0  0  0  0  0
    2.3865    6.7484    0.0000 C   0  0  0  0  0  0  0  0  0  0  0  0
    3.6000    5.8667    0.0000 C   0  0  0  0  0  0  0  0  0  0  0  0
    4.9703    6.4768    0.0000 C   0  0  0  0  0  0  0  0  0  0  0  0
    5.1271    7.9686    0.0000 C   0  0  0  0  0  0  0  0  0  0  0  0
    3.9136    8.8503    0.0000 C   0  0  0  0  0  0  0  0  0  0  0  0
   -3.9583    5.1814    0.0000 C   0  0  0  0  0  0  0  0  0  0  0  0
   -4.4218    3.7548    0.0000 C   0  0  0  0  0  0  0  0  0  0  0  0
   -5.8891    3.4430    0.0000 C   0  0  0  0  0  0  0  0  0  0  0  0
   -6.4992    2.0726    0.0000 N   0  0  0  0  0  0  0  0  0  0  0  0
   -7.9910    2.2294    0.0000 N   0  0  0  0  0  0  0  0  0  0  0  0
   -8.3028    3.6967    0.0000 N   0  0  0  0  0  0  0  0  0  0  0  0
   -7.0038    4.4467    0.0000 N   0  0  0  0  0  0  0  0  0  0  0  0
   -6.8470    5.9384    0.0000 C   0  0  0  0  0  0  0  0  0  0  0  0
   -5.5480    6.6884    0.0000 N   0  0  0  0  0  0  0  0  0  0  0  0
   -5.8598    8.1557    0.0000 N   0  0  0  0  0  0  0  0  0  0  0  0
   -7.3516    8.3125    0.0000 N   0  0  0  0  0  0  0  0  0  0  0  0
   -7.9617    6.9421    0.0000 N   0  0  0  0  0  0  0  0  0  0  0  0
   -9.4289    6.6303    0.0000 C   0  0  0  0  0  0  0  0  0  0  0  0
  -10.4326    7.7450    0.0000 C   0  0  0  0  0  0  0  0  0  0  0  0
  -11.8999    7.4331    0.0000 C   0  0  0  0  0  0  0  0  0  0  0  0
  -12.3634    6.0065    0.0000 C   0  0  0  0  0  0  0  0  0  0  0  0
  -13.8306    5.6947    0.0000 C   0  0  0  0  0  0  0  0  0  0  0  0
  -14.4407    4.3243    0.0000 N   0  0  0  0  0  0  0  0  0  0  0  0
  -15.9325    4.4811    0.0000 N   0  0  0  0  0  0  0  0  0  0  0  0
  -16.2444    5.9484    0.0000 N   0  0  0  0  0  0  0  0  0  0  0  0
  -14.9453    6.6984    0.0000 N   0  0  0  0  0  0  0  0  0  0  0  0
  -14.7885    8.1901    0.0000 C   0  0  0  0  0  0  0  0  0  0  0  0
  -13.4895    8.9401    0.0000 N   0  0  0  0  0  0  0  0  0  0  0  0
  -13.8014   10.4074    0.0000 N   0  0  0  0  0  0  0  0  0  0  0  0
  -15.2931   10.5642    0.0000 N   0  0  0  0  0  0  0  0  0  0  0  0
  -15.9032    9.1938    0.0000 N   0  0  0  0  0  0  0  0  0  0  0  0
  -17.3705    8.8820    0.0000 C   0  0  0  0  0  0  0  0  0  0  0  0
  -17.8340    7.4554    0.0000 C   0  0  0  0  0  0  0  0  0  0  0  0
  -19.3012    7.1435    0.0000 C   0  0  0  0  0  0  0  0  0  0  0  0
  -20.3049    8.2582    0.0000 C   0  0  0  0  0  0  0  0  0  0  0  0
  -19.8414    9.6848    0.0000 C   0  0  0  0  0  0  0  0  0  0  0  0
  -18.3742    9.9967    0.0000 C   0  0  0  0  0  0  0  0  0  0  0  0
  -11.3597    4.8918    0.0000 C   0  0  0  0  0  0  0  0  0  0  0  0
   -9.8925    5.2037    0.0000 C   0  0  0  0  0  0  0  0  0  0  0  0
   -0.7500    1.2990    0.0000 C   0  0  0  0  0  0  0  0  0  0  0  0
    0.7500    1.2990    0.0000 C   0  0  0  0  0  0  0  0  0  0  0  0
  1  2  1  0
  2  3  1  0
  3  4  2  0
  4  5  1  0
  5  6  2  0
  6  7  1  0
  7  8  2  0
  8  9  1  0
  9 10  2  0
 10 11  1  0
 11 12  1  0
 12 13  2  0
 13 14  1  0
 14 15  2  0
 15 16  1  0
 16 17  2  0
 16 18  1  0
 18 19  1  0
 19 20  2  0
 20 21  1  0
 21 22  2  0
 22 23  1  0
 23 24  1  0
 24 25  2  0
 25 26  1  0
 26 27  2  0
 27 28  1  0
 28 29  2  0
 15 30  1  0
 30 31  2  0
 31 32  1  0
 32 33  2  0
 33 34  1  0
 34 35  2  0
 35 36  1  0
 36 37  1  0
 37 38  2  0
 38 39  1  0
 39 40  2  0
 40 41  1  0
 41 42  1  0
 42 43  2  0
 43 44  1  0
 44 45  2  0
 45 46  1  0
 46 47  2  0
 47 48  1  0
 48 49  2  0
 49 50  1  0
 50 51  1  0
 51 52  2  0
 52 53  1  0
 53 54  2  0
 54 55  1  0
 55 56  1  0
 56 57  2  0
 57 58  1  0
 58 59  2  0
 59 60  1  0
 60 61  2  0
 45 62  1  0
 62 63  2  0
  6 64  1  0
 64 65  2  0
 65  3  1  0
 11  7  1  0
 31 12  1  0
 36 32  1  0
 41 37  1  0
 63 42  1  0
 23 19  1  0
 29 24  1  0
 50 46  1  0
 55 51  1  0
 61 56  1  0
M  END
>  <Title>  (787) 
idABEGgen8

$$$$

     RDKit          2D

 29 29  0  0  0  0  0  0  0  0999 V2000
    8.7103   -1.2990    0.0000 C   0  0  0  0  0  0  0  0  0  0  0  0
    7.9603    0.0000    0.0000 C   0  0  0  0  0  0  0  0  0  0  0  0
    6.4603    0.0000    0.0000 C   0  0  0  0  0  0  0  0  0  0  0  0
    6.2862    1.4899    0.0000 C   0  0  0  0  0  0  0  0  0  0  0  0
    5.7732    2.8994    0.0000 C   0  0  0  0  0  0  0  0  0  0  0  0
    4.9489    4.1526    0.0000 C   0  0  0  0  0  0  0  0  0  0  0  0
    3.8578    5.1820    0.0000 C   0  0  0  0  0  0  0  0  0  0  0  0
    2.5588    5.9320    0.0000 C   0  0  0  0  0  0  0  0  0  0  0  0
    1.1218    6.3622    0.0000 C   0  0  0  0  0  0  0  0  0  0  0  0
   -0.3756    6.4494    0.0000 C   0  0  0  0  0  0  0  0  0  0  0  0
   -1.8528    6.1889    0.0000 C   0  0  0  0  0  0  0  0  0  0  0  0
   -3.2302    5.5948    0.0000 C   0  0  0  0  0  0  0  0  0  0  0  0
   -4.4334    4.6991    0.0000 C   0  0  0  0  0  0  0  0  0  0  0  0
   -5.3975    3.5500    0.0000 C   0  0  0  0  0  0  0  0  0  0  0  0
   -6.0707    2.2096    0.0000 C   0  0  0  0  0  0  0  0  0  0  0  0
   -6.4167    0.7500    0.0000 C   0  0  0  0  0  0  0  0  0  0  0  0
   -6.4167   -0.7500    0.0000 C   0  0  0  0  0  0  0  0  0  0  0  0
   -6.0707   -2.2096    0.0000 C   0  0  0  0  0  0  0  0  0  0  0  0
   -5.3975   -3.5500    0.0000 C   0  0  0  0  0  0  0  0  0  0  0  0
   -4.4334   -4.6991    0.0000 C   0  0  0  0  0  0  0  0  0  0  0  0
   -3.2302   -5.5948    0.0000 C   0  0  0  0  0  0  0  0  0  0  0  0
   -1.8528   -6.1889    0.0000 C   0  0  0  0  0  0  0  0  0  0  0  0
   -0.3756   -6.4494    0.0000 C   0  0  0  0  0  0  0  0  0  0  0  0
    1.1218   -6.3622    0.0000 C   0  0  0  0  0  0  0  0  0  0  0  0
    2.5588   -5.9320    0.0000 C   0  0  0  0  0  0  0  0  0  0  0  0
    3.8578   -5.1820    0.0000 C   0  0  0  0  0  0  0  0  0  0  0  0
    4.9489   -4.1526    0.0000 C   0  0  0  0  0  0  0  0  0  0  0  0
    5.7732   -2.8994    0.0000 C   0  0  0  0  0  0  0  0  0  0  0  0
    6.2862   -1.4899    0.0000 C   0  0  0  0  0  0  0  0  0  0  0  0
  1  2  1  0
  2  3  1  0
  3  4  1  0
  4  5  2  0
  5  6  1  0
  6  7  2  0
  7  8  1  0
  8  9  2  0
  9 10  1  0
 10 11  2  0
 11 12  1  0
 12 13  2  0
 13 14  1  0
 14 15  2  0
 15 16  1  0
 16 17  2  0
 17 18  1  0
 18 19  2  0
 19 20  1  0
 20 21  1  0
 21 22  1  0
 22 23  1  0
 23 24  1  0
 24 25  1  0
 25 26  1  0
 26 27  1  0
 27 28  1  0
 28 29  1  0
 29  3  1  0
M  END
>  <Title>  (788) 
idABEHgen8

$$$$

     RDKit          2D

 50 57  0  0  0  0  0  0  0  0999 V2000
   -5.6321   10.5120    0.0000 C   0  0  0  0  0  0  0  0  0  0  0  0
   -4.4186    9.6303    0.0000 C   0  0  0  0  0  0  0  0  0  0  0  0
   -4.5754    8.1386    0.0000 C   0  0  0  0  0  0  0  0  0  0  0  0
   -3.3619    7.2569    0.0000 C   0  0  0  0  0  0  0  0  0  0  0  0
   -1.9916    7.8670    0.0000 C   0  0  0  0  0  0  0  0  0  0  0  0
   -0.7780    6.9853    0.0000 C   0  0  0  0  0  0  0  0  0  0  0  0
    0.6485    7.4488    0.0000 C   0  0  0  0  0  0  0  0  0  0  0  0
    1.5302    6.2353    0.0000 C   0  0  0  0  0  0  0  0  0  0  0  0
    0.6485    5.0218    0.0000 C   0  0  0  0  0  0  0  0  0  0  0  0
   -0.7780    5.4853    0.0000 N   0  0  0  0  0  0  0  0  0  0  0  0
   -1.9916    4.6036    0.0000 C   0  0  0  0  0  0  0  0  0  0  0  0
   -3.4182    5.0672    0.0000 N   0  0  0  0  0  0  0  0  0  0  0  0
   -4.2998    3.8536    0.0000 N   0  0  0  0  0  0  0  0  0  0  0  0
   -3.4182    2.6401    0.0000 N   0  0  0  0  0  0  0  0  0  0  0  0
   -1.9916    3.1036    0.0000 N   0  0  0  0  0  0  0  0  0  0  0  0
   -0.7780    2.2220    0.0000 C   0  0  0  0  0  0  0  0  0  0  0  0
    0.6485    2.6855    0.0000 C   0  0  0  0  0  0  0  0  0  0  0  0
    1.5302    1.4720    0.0000 C   0  0  0  0  0  0  0  0  0  0  0  0
    0.6485    0.2584    0.0000 C   0  0  0  0  0  0  0  0  0  0  0  0
    1.1121   -1.1682    0.0000 C   0  0  0  0  0  0  0  0  0  0  0  0
    2.5387   -1.6317    0.0000 N   0  0  0  0  0  0  0  0  0  0  0  0
    2.5387   -3.1317    0.0000 N   0  0  0  0  0  0  0  0  0  0  0  0
    1.1121   -3.5952    0.0000 N   0  0  0  0  0  0  0  0  0  0  0  0
    0.2304   -2.3817    0.0000 N   0  0  0  0  0  0  0  0  0  0  0  0
   -1.2696   -2.3817    0.0000 C   0  0  0  0  0  0  0  0  0  0  0  0
   -2.0196   -1.0826    0.0000 C   0  0  0  0  0  0  0  0  0  0  0  0
   -3.5196   -1.0826    0.0000 C   0  0  0  0  0  0  0  0  0  0  0  0
   -4.2696   -2.3817    0.0000 C   0  0  0  0  0  0  0  0  0  0  0  0
   -5.7696   -2.3817    0.0000 C   0  0  0  0  0  0  0  0  0  0  0  0
   -6.5196   -1.0826    0.0000 O   0  0  0  0  0  0  0  0  0  0  0  0
   -6.5196   -3.6807    0.0000 N   0  0  0  0  0  0  0  0  0  0  0  0
   -8.0196   -3.6807    0.0000 C   0  0  0  0  0  0  0  0  0  0  0  0
   -8.7696   -2.3817    0.0000 C   0  0  0  0  0  0  0  0  0  0  0  0
  -10.2696   -2.3817    0.0000 C   0  0  0  0  0  0  0  0  0  0  0  0
  -11.0196   -3.6807    0.0000 C   0  0  0  0  0  0  0  0  0  0  0  0
  -10.2696   -4.9798    0.0000 C   0  0  0  0  0  0  0  0  0  0  0  0
   -8.7696   -4.9798    0.0000 C   0  0  0  0  0  0  0  0  0  0  0  0
   -3.5196   -3.6807    0.0000 C   0  0  0  0  0  0  0  0  0  0  0  0
   -2.0196   -3.6807    0.0000 C   0  0  0  0  0  0  0  0  0  0  0  0
   -1.2696   -4.9798    0.0000 C   0  0  0  0  0  0  0  0  0  0  0  0
   -2.0196   -6.2788    0.0000 C   0  0  0  0  0  0  0  0  0  0  0  0
   -1.2696   -7.5778    0.0000 C   0  0  0  0  0  0  0  0  0  0  0  0
    0.2304   -7.5778    0.0000 C   0  0  0  0  0  0  0  0  0  0  0  0
    0.9804   -6.2788    0.0000 C   0  0  0  0  0  0  0  0  0  0  0  0
    0.2304   -4.9798    0.0000 C   0  0  0  0  0  0  0  0  0  0  0  0
   -0.7780    0.7220    0.0000 C   0  0  0  0  0  0  0  0  0  0  0  0
   -1.9916   -0.1597    0.0000 O   0  0  0  0  0  0  0  0  0  0  0  0
   -1.8348    9.3588    0.0000 N   0  0  0  0  0  0  0  0  0  0  0  0
   -3.0483   10.2405    0.0000 C   0  0  0  0  0  0  0  0  0  0  0  0
   -2.8915   11.7322    0.0000 O   0  0  0  0  0  0  0  0  0  0  0  0
  1  2  1  0
  2  3  2  0
  3  4  1  0
  4  5  2  0
  5  6  1  0
  6  7  2  0
  7  8  1  0
  8  9  2  0
  9 10  1  0
 10 11  1  0
 11 12  2  0
 12 13  1  0
 13 14  2  0
 14 15  1  0
 15 16  1  0
 16 17  2  0
 17 18  1  0
 18 19  2  0
 19 20  1  0
 20 21  2  0
 21 22  1  0
 22 23  2  0
 23 24  1  0
 24 25  1  0
 25 26  2  0
 26 27  1  0
 27 28  2  0
 28 29  1  0
 29 30  2  0
 29 31  1  0
 31 32  1  0
 32 33  2  0
 33 34  1  0
 34 35  2  0
 35 36  1  0
 36 37  2  0
 28 38  1  0
 38 39  2  0
 39 40  1  0
 40 41  2  0
 41 42  1  0
 42 43  2  0
 43 44  1  0
 44 45  2  0
 19 46  1  0
 46 47  2  0
  5 48  1  0
 48 49  1  0
 49 50  2  0
 49  2  1  0
 10  6  1  0
 15 11  1  0
 46 16  1  0
 24 20  1  0
 39 25  1  0
 45 40  1  0
 37 32  1  0
M  END
>  <Title>  (789) 
idABEIgen8

$$$$

     RDKit          2D

 37 42  0  0  0  0  0  0  0  0999 V2000
    7.5646   -0.1148    0.0000 C   0  0  0  0  0  0  0  0  0  0  0  0
    6.0974   -0.4266    0.0000 C   0  0  0  0  0  0  0  0  0  0  0  0
    4.9826    0.5771    0.0000 C   0  0  0  0  0  0  0  0  0  0  0  0
    3.6836   -0.1729    0.0000 C   0  0  0  0  0  0  0  0  0  0  0  0
    3.9955   -1.6402    0.0000 C   0  0  0  0  0  0  0  0  0  0  0  0
    2.9918   -2.7549    0.0000 C   0  0  0  0  0  0  0  0  0  0  0  0
    3.3037   -4.2221    0.0000 N   0  0  0  0  0  0  0  0  0  0  0  0
    2.0046   -4.9721    0.0000 N   0  0  0  0  0  0  0  0  0  0  0  0
    0.8899   -3.9684    0.0000 N   0  0  0  0  0  0  0  0  0  0  0  0
    1.5000   -2.5981    0.0000 N   0  0  0  0  0  0  0  0  0  0  0  0
    0.7500   -1.2990    0.0000 C   0  0  0  0  0  0  0  0  0  0  0  0
    1.5000    0.0000    0.0000 C   0  0  0  0  0  0  0  0  0  0  0  0
    0.7500    1.2990    0.0000 C   0  0  0  0  0  0  0  0  0  0  0  0
   -0.7500    1.2990    0.0000 C   0  0  0  0  0  0  0  0  0  0  0  0
   -1.5000    0.0000    0.0000 N   0  0  0  0  0  0  0  0  0  0  0  0
   -0.7500   -1.2990    0.0000 C   0  0  0  0  0  0  0  0  0  0  0  0
   -1.5000   -2.5981    0.0000 C   0  0  0  0  0  0  0  0  0  0  0  0
   -0.8899   -3.9684    0.0000 C   0  0  0  0  0  0  0  0  0  0  0  0
   -2.0046   -4.9721    0.0000 N   0  0  0  0  0  0  0  0  0  0  0  0
   -3.3037   -4.2221    0.0000 N   0  0  0  0  0  0  0  0  0  0  0  0
   -2.9918   -2.7549    0.0000 N   0  0  0  0  0  0  0  0  0  0  0  0
   -3.9955   -1.6402    0.0000 C   0  0  0  0  0  0  0  0  0  0  0  0
   -3.6836   -0.1729    0.0000 N   0  0  0  0  0  0  0  0  0  0  0  0
   -4.9826    0.5771    0.0000 N   0  0  0  0  0  0  0  0  0  0  0  0
   -6.0974   -0.4266    0.0000 N   0  0  0  0  0  0  0  0  0  0  0  0
   -5.4873   -1.7969    0.0000 N   0  0  0  0  0  0  0  0  0  0  0  0
   -6.2373   -3.0960    0.0000 C   0  0  0  0  0  0  0  0  0  0  0  0
   -5.4873   -4.3950    0.0000 C   0  0  0  0  0  0  0  0  0  0  0  0
   -6.2373   -5.6941    0.0000 C   0  0  0  0  0  0  0  0  0  0  0  0
   -7.7373   -5.6941    0.0000 C   0  0  0  0  0  0  0  0  0  0  0  0
   -8.4873   -6.9931    0.0000 C   0  0  0  0  0  0  0  0  0  0  0  0
   -7.7373   -8.2921    0.0000 O   0  0  0  0  0  0  0  0  0  0  0  0
   -9.9873   -6.9931    0.0000 N   0  0  0  0  0  0  0  0  0  0  0  0
  -10.7373   -8.2921    0.0000 O   0  0  0  0  0  0  0  0  0  0  0  0
   -8.4873   -4.3950    0.0000 C   0  0  0  0  0  0  0  0  0  0  0  0
   -7.7373   -3.0960    0.0000 C   0  0  0  0  0  0  0  0  0  0  0  0
    5.4873   -1.7969    0.0000 N   0  0  0  0  0  0  0  0  0  0  0  0
  1  2  1  0
  2  3  2  0
  3  4  1  0
  4  5  2  0
  5  6  1  0
  6  7  2  0
  7  8  1  0
  8  9  2  0
  9 10  1  0
 10 11  1  0
 11 12  1  0
 12 13  1  0
 13 14  1  0
 14 15  1  0
 15 16  1  0
 16 17  1  0
 17 18  2  0
 18 19  1  0
 19 20  2  0
 20 21  1  0
 21 22  1  0
 22 23  2  0
 23 24  1  0
 24 25  2  0
 25 26  1  0
 26 27  1  0
 27 28  2  0
 28 29  1  0
 29 30  2  0
 30 31  1  0
 31 32  2  0
 31 33  1  0
 33 34  1  0
 30 35  1  0
 35 36  1  0
  5 37  1  0
 37  2  1  0
 10  6  1  0
 16 11  1  0
 21 17  1  0
 26 22  1  0
 36 27  1  0
M  END
>  <Title>  (790) 
idABEJgen8

$$$$

     RDKit          2D

 23 23  0  0  0  0  0  0  0  0999 V2000
    7.2821   -1.2990    0.0000 C   0  0  0  0  0  0  0  0  0  0  0  0
    6.5321    0.0000    0.0000 O   0  0  0  0  0  0  0  0  0  0  0  0
    5.0321    0.0000    0.0000 C   0  0  0  0  0  0  0  0  0  0  0  0
    4.8086    1.4832    0.0000 C   0  0  0  0  0  0  0  0  0  0  0  0
    4.1577    2.8347    0.0000 C   0  0  0  0  0  0  0  0  0  0  0  0
    3.1375    3.9343    0.0000 C   0  0  0  0  0  0  0  0  0  0  0  0
    1.8384    4.6843    0.0000 C   0  0  0  0  0  0  0  0  0  0  0  0
    0.3761    5.0181    0.0000 C   0  0  0  0  0  0  0  0  0  0  0  0
   -1.1198    4.9060    0.0000 C   0  0  0  0  0  0  0  0  0  0  0  0
   -2.5161    4.3580    0.0000 C   0  0  0  0  0  0  0  0  0  0  0  0
   -3.6888    3.4227    0.0000 C   0  0  0  0  0  0  0  0  0  0  0  0
   -4.5338    2.1834    0.0000 C   0  0  0  0  0  0  0  0  0  0  0  0
   -4.9759    0.7500    0.0000 C   0  0  0  0  0  0  0  0  0  0  0  0
   -4.9759   -0.7500    0.0000 C   0  0  0  0  0  0  0  0  0  0  0  0
   -4.5338   -2.1834    0.0000 C   0  0  0  0  0  0  0  0  0  0  0  0
   -3.6888   -3.4227    0.0000 C   0  0  0  0  0  0  0  0  0  0  0  0
   -2.5161   -4.3580    0.0000 C   0  0  0  0  0  0  0  0  0  0  0  0
   -1.1198   -4.9060    0.0000 C   0  0  0  0  0  0  0  0  0  0  0  0
    0.3761   -5.0181    0.0000 C   0  0  0  0  0  0  0  0  0  0  0  0
    1.8384   -4.6843    0.0000 C   0  0  0  0  0  0  0  0  0  0  0  0
    3.1375   -3.9343    0.0000 C   0  0  0  0  0  0  0  0  0  0  0  0
    4.1577   -2.8347    0.0000 C   0  0  0  0  0  0  0  0  0  0  0  0
    4.8086   -1.4832    0.0000 C   0  0  0  0  0  0  0  0  0  0  0  0
  1  2  1  0
  2  3  1  0
  3  4  2  0
  4  5  1  0
  5  6  2  0
  6  7  1  0
  7  8  2  0
  8  9  1  0
  9 10  2  0
 10 11  1  0
 11 12  2  0
 12 13  1  0
 13 14  1  0
 14 15  1  0
 15 16  1  0
 16 17  1  0
 17 18  1  0
 18 19  1  0
 19 20  1  0
 20 21  1  0
 21 22  1  0
 22 23  1  0
 23  3  1  0
M  END
>  <Title>  (791) 
idABEKgen8

$$$$

     RDKit          2D

 13 13  0  0  0  0  0  0  0  0999 V2000
    3.9271    0.0000    0.0000 C   0  0  0  0  0  0  0  0  0  0  0  0
    2.4271    0.0000    0.0000 C   0  0  0  0  0  0  0  0  0  0  0  0
    1.9635   -1.4266    0.0000 C   0  0  0  0  0  0  0  0  0  0  0  0
    0.7500   -2.3083    0.0000 C   0  0  0  0  0  0  0  0  0  0  0  0
   -0.7500   -2.3083    0.0000 C   0  0  0  0  0  0  0  0  0  0  0  0
   -1.9635   -1.4266    0.0000 C   0  0  0  0  0  0  0  0  0  0  0  0
   -2.4271    0.0000    0.0000 C   0  0  0  0  0  0  0  0  0  0  0  0
   -3.9271    0.0000    0.0000 F   0  0  0  0  0  0  0  0  0  0  0  0
   -1.9635    1.4266    0.0000 C   0  0  0  0  0  0  0  0  0  0  0  0
   -3.1771    2.3083    0.0000 C   0  0  0  0  0  0  0  0  0  0  0  0
   -0.7500    2.3083    0.0000 C   0  0  0  0  0  0  0  0  0  0  0  0
    0.7500    2.3083    0.0000 C   0  0  0  0  0  0  0  0  0  0  0  0
    1.9635    1.4266    0.0000 C   0  0  0  0  0  0  0  0  0  0  0  0
  1  2  1  0
  2  3  2  0
  3  4  1  0
  4  5  2  0
  5  6  1  0
  6  7  2  0
  7  8  1  0
  7  9  1  0
  9 10  1  0
  9 11  2  0
 11 12  1  0
 12 13  2  0
 13  2  1  0
M  END
>  <Title>  (792) 
idABELgen8

$$$$

     RDKit          2D

 16 16  0  0  0  0  0  0  0  0999 V2000
    5.1073    0.0000    0.0000 C   0  0  0  0  0  0  0  0  0  0  0  0
    3.6073    0.0000    0.0000 C   0  0  0  0  0  0  0  0  0  0  0  0
    3.2954    1.4672    0.0000 C   0  0  0  0  0  0  0  0  0  0  0  0
    2.4138    2.6807    0.0000 C   0  0  0  0  0  0  0  0  0  0  0  0
    1.1147    3.4307    0.0000 C   0  0  0  0  0  0  0  0  0  0  0  0
   -0.3771    3.5875    0.0000 C   0  0  0  0  0  0  0  0  0  0  0  0
   -1.8037    3.1240    0.0000 C   0  0  0  0  0  0  0  0  0  0  0  0
   -2.9184    2.1203    0.0000 C   0  0  0  0  0  0  0  0  0  0  0  0
   -3.5285    0.7500    0.0000 C   0  0  0  0  0  0  0  0  0  0  0  0
   -3.5285   -0.7500    0.0000 C   0  0  0  0  0  0  0  0  0  0  0  0
   -2.9184   -2.1203    0.0000 C   0  0  0  0  0  0  0  0  0  0  0  0
   -1.8037   -3.1240    0.0000 C   0  0  0  0  0  0  0  0  0  0  0  0
   -0.3771   -3.5875    0.0000 C   0  0  0  0  0  0  0  0  0  0  0  0
    1.1147   -3.4307    0.0000 C   0  0  0  0  0  0  0  0  0  0  0  0
    2.4138   -2.6807    0.0000 C   0  0  0  0  0  0  0  0  0  0  0  0
    3.2954   -1.4672    0.0000 C   0  0  0  0  0  0  0  0  0  0  0  0
  1  2  1  0
  2  3  2  0
  3  4  1  0
  4  5  2  0
  5  6  1  0
  6  7  2  0
  7  8  1  0
  8  9  2  0
  9 10  1  0
 10 11  2  0
 11 12  1  0
 12 13  2  0
 13 14  1  0
 14 15  2  0
 15 16  1  0
 16  2  1  0
M  END
>  <Title>  (793) 
idABEMgen8

$$$$

     RDKit          2D

 42 46  0  0  0  0  0  0  0  0999 V2000
    5.2500   -1.2990    0.0000 C   0  0  0  0  0  0  0  0  0  0  0  0
    3.7500   -1.2990    0.0000 C   0  0  0  0  0  0  0  0  0  0  0  0
    3.0000   -2.5981    0.0000 O   0  0  0  0  0  0  0  0  0  0  0  0
    3.0000    0.0000    0.0000 O   0  0  0  0  0  0  0  0  0  0  0  0
    1.5000    0.0000    0.0000 C   0  0  0  0  0  0  0  0  0  0  0  0
    0.7500   -1.2990    0.0000 C   0  0  0  0  0  0  0  0  0  0  0  0
   -0.7500   -1.2990    0.0000 C   0  0  0  0  0  0  0  0  0  0  0  0
   -1.5000    0.0000    0.0000 C   0  0  0  0  0  0  0  0  0  0  0  0
   -3.0000    0.0000    0.0000 C   0  0  0  0  0  0  0  0  0  0  0  0
   -3.7500   -1.2990    0.0000 O   0  0  0  0  0  0  0  0  0  0  0  0
   -3.7500    1.2990    0.0000 N   0  0  0  0  0  0  0  0  0  0  0  0
   -5.2500    1.2990    0.0000 C   0  0  0  0  0  0  0  0  0  0  0  0
   -6.1317    0.0855    0.0000 N   0  0  0  0  0  0  0  0  0  0  0  0
   -7.5583    0.5490    0.0000 N   0  0  0  0  0  0  0  0  0  0  0  0
   -7.5583    2.0490    0.0000 N   0  0  0  0  0  0  0  0  0  0  0  0
   -6.1317    2.5126    0.0000 N   0  0  0  0  0  0  0  0  0  0  0  0
   -5.6682    3.9391    0.0000 C   0  0  0  0  0  0  0  0  0  0  0  0
   -4.2009    4.2510    0.0000 C   0  0  0  0  0  0  0  0  0  0  0  0
   -3.7374    5.6776    0.0000 C   0  0  0  0  0  0  0  0  0  0  0  0
   -4.7411    6.7923    0.0000 C   0  0  0  0  0  0  0  0  0  0  0  0
   -4.2776    8.2189    0.0000 C   0  0  0  0  0  0  0  0  0  0  0  0
   -5.2813    9.3336    0.0000 O   0  0  0  0  0  0  0  0  0  0  0  0
   -2.8104    8.5308    0.0000 N   0  0  0  0  0  0  0  0  0  0  0  0
   -2.3468    9.9574    0.0000 C   0  0  0  0  0  0  0  0  0  0  0  0
   -3.2285   11.1709    0.0000 N   0  0  0  0  0  0  0  0  0  0  0  0
   -2.3468   12.3844    0.0000 N   0  0  0  0  0  0  0  0  0  0  0  0
   -0.9202   11.9209    0.0000 N   0  0  0  0  0  0  0  0  0  0  0  0
   -0.9202   10.4209    0.0000 N   0  0  0  0  0  0  0  0  0  0  0  0
    0.2933    9.5392    0.0000 C   0  0  0  0  0  0  0  0  0  0  0  0
    0.1365    8.0474    0.0000 C   0  0  0  0  0  0  0  0  0  0  0  0
    1.3500    7.1657    0.0000 C   0  0  0  0  0  0  0  0  0  0  0  0
    2.7203    7.7758    0.0000 C   0  0  0  0  0  0  0  0  0  0  0  0
    3.9339    6.8942    0.0000 C   0  0  0  0  0  0  0  0  0  0  0  0
    5.3042    7.5043    0.0000 O   0  0  0  0  0  0  0  0  0  0  0  0
    3.7771    5.4024    0.0000 N   0  0  0  0  0  0  0  0  0  0  0  0
    4.9906    4.5207    0.0000 O   0  0  0  0  0  0  0  0  0  0  0  0
    2.8771    9.2676    0.0000 C   0  0  0  0  0  0  0  0  0  0  0  0
    1.6636   10.1493    0.0000 C   0  0  0  0  0  0  0  0  0  0  0  0
   -6.2083    6.4805    0.0000 C   0  0  0  0  0  0  0  0  0  0  0  0
   -6.6718    5.0539    0.0000 C   0  0  0  0  0  0  0  0  0  0  0  0
   -0.7500    1.2990    0.0000 C   0  0  0  0  0  0  0  0  0  0  0  0
    0.7500    1.2990    0.0000 C   0  0  0  0  0  0  0  0  0  0  0  0
  1  2  1  0
  2  3  2  0
  2  4  1  0
  4  5  1  0
  5  6  2  0
  6  7  1  0
  7  8  2  0
  8  9  1  0
  9 10  2  0
  9 11  1  0
 11 12  1  0
 12 13  2  0
 13 14  1  0
 14 15  2  0
 15 16  1  0
 16 17  1  0
 17 18  2  0
 18 19  1  0
 19 20  2  0
 20 21  1  0
 21 22  2  0
 21 23  1  0
 23 24  1  0
 24 25  2  0
 25 26  1  0
 26 27  2  0
 27 28  1  0
 28 29  1  0
 29 30  2  0
 30 31  1  0
 31 32  2  0
 32 33  1  0
 33 34  2  0
 33 35  1  0
 35 36  1  0
 32 37  1  0
 37 38  1  0
 20 39  1  0
 39 40  2  0
  8 41  1  0
 41 42  2  0
 42  5  1  0
 16 12  1  0
 40 17  1  0
 28 24  1  0
 38 29  1  0
M  END
>  <Title>  (794) 
idABENgen8

$$$$

     RDKit          2D

 12 12  0  0  0  0  0  0  0  0999 V2000
    3.9271    0.0000    0.0000 C   0  0  0  0  0  0  0  0  0  0  0  0
    2.4271    0.0000    0.0000 C   0  0  0  0  0  0  0  0  0  0  0  0
    1.9635   -1.4266    0.0000 C   0  0  0  0  0  0  0  0  0  0  0  0
    0.7500   -2.3083    0.0000 C   0  0  0  0  0  0  0  0  0  0  0  0
   -0.7500   -2.3083    0.0000 C   0  0  0  0  0  0  0  0  0  0  0  0
   -1.9635   -1.4266    0.0000 C   0  0  0  0  0  0  0  0  0  0  0  0
   -2.4271    0.0000    0.0000 C   0  0  0  0  0  0  0  0  0  0  0  0
   -1.9635    1.4266    0.0000 C   0  0  0  0  0  0  0  0  0  0  0  0
   -0.7500    2.3083    0.0000 C   0  0  0  0  0  0  0  0  0  0  0  0
    0.7500    2.3083    0.0000 C   0  0  0  0  0  0  0  0  0  0  0  0
    1.2135    3.7348    0.0000 C   0  0  0  0  0  0  0  0  0  0  0  0
    1.9635    1.4266    0.0000 C   0  0  0  0  0  0  0  0  0  0  0  0
  1  2  1  0
  2  3  2  0
  3  4  1  0
  4  5  2  0
  5  6  2  0
  6  7  1  0
  7  8  2  0
  8  9  1  0
  9 10  2  0
 10 11  1  0
 10 12  1  0
 12  2  1  0
M  END
>  <Title>  (795) 
idABEOgen8

$$$$

     RDKit          2D

 32 33  0  0  0  0  0  0  0  0999 V2000
    5.6563    7.2696    0.0000 C   0  0  0  0  0  0  0  0  0  0  0  0
    4.1567    7.2347    0.0000 C   0  0  0  0  0  0  0  0  0  0  0  0
    4.0173    5.7412    0.0000 N   0  0  0  0  0  0  0  0  0  0  0  0
    3.5372    4.3201    0.0000 C   0  0  0  0  0  0  0  0  0  0  0  0
    2.7423    3.0480    0.0000 N   0  0  0  0  0  0  0  0  0  0  0  0
    1.6755    1.9935    0.0000 N   0  0  0  0  0  0  0  0  0  0  0  0
    0.3943    1.2135    0.0000 C   0  0  0  0  0  0  0  0  0  0  0  0
    1.2760    0.0000    0.0000 C   0  0  0  0  0  0  0  0  0  0  0  0
    0.3943   -1.2135    0.0000 C   0  0  0  0  0  0  0  0  0  0  0  0
   -1.0323   -0.7500    0.0000 C   0  0  0  0  0  0  0  0  0  0  0  0
   -1.0323    0.7500    0.0000 C   0  0  0  0  0  0  0  0  0  0  0  0
   -2.5273    0.6280    0.0000 C   0  0  0  0  0  0  0  0  0  0  0  0
   -4.0102    0.8540    0.0000 C   0  0  0  0  0  0  0  0  0  0  0  0
   -5.4010    1.4159    0.0000 C   0  0  0  0  0  0  0  0  0  0  0  0
   -6.6247    2.2834    0.0000 C   0  0  0  0  0  0  0  0  0  0  0  0
   -7.6153    3.4097    0.0000 C   0  0  0  0  0  0  0  0  0  0  0  0
   -8.3195    4.7341    0.0000 C   0  0  0  0  0  0  0  0  0  0  0  0
   -8.6993    6.1853    0.0000 C   0  0  0  0  0  0  0  0  0  0  0  0
   -8.7342    7.6849    0.0000 C   0  0  0  0  0  0  0  0  0  0  0  0
   -8.4224    9.1521    0.0000 C   0  0  0  0  0  0  0  0  0  0  0  0
   -7.7805   10.5078    0.0000 C   0  0  0  0  0  0  0  0  0  0  0  0
   -6.8433   11.6790    0.0000 C   0  0  0  0  0  0  0  0  0  0  0  0
   -5.6613   12.6025    0.0000 C   0  0  0  0  0  0  0  0  0  0  0  0
   -4.2982   13.2285    0.0000 C   0  0  0  0  0  0  0  0  0  0  0  0
   -2.8275   13.5233    0.0000 C   0  0  0  0  0  0  0  0  0  0  0  0
   -1.3284   13.4709    0.0000 C   0  0  0  0  0  0  0  0  0  0  0  0
    0.1182   13.0743    0.0000 C   0  0  0  0  0  0  0  0  0  0  0  0
    1.4344   12.3547    0.0000 C   0  0  0  0  0  0  0  0  0  0  0  0
    2.5491   11.3510    0.0000 C   0  0  0  0  0  0  0  0  0  0  0  0
    3.4023   10.1173    0.0000 C   0  0  0  0  0  0  0  0  0  0  0  0
    3.9480    8.7201    0.0000 C   0  0  0  0  0  0  0  0  0  0  0  0
    5.3991    9.0999    0.0000 O   0  0  0  0  0  0  0  0  0  0  0  0
  1  2  1  0
  2  3  2  0
  3  4  1  0
  4  5  2  0
  5  6  1  0
  6  7  2  0
  7  8  1  0
  8  9  2  0
  9 10  1  0
 10 11  2  0
 11 12  1  0
 12 13  2  0
 13 14  1  0
 14 15  2  0
 15 16  1  0
 16 17  2  0
 17 18  1  0
 18 19  2  0
 19 20  1  0
 20 21  2  0
 21 22  1  0
 22 23  2  0
 23 24  1  0
 24 25  2  0
 25 26  1  0
 26 27  2  0
 27 28  1  0
 28 29  2  0
 29 30  1  0
 30 31  2  0
 31 32  1  0
 31  2  1  0
 11  7  1  0
M  END
>  <Title>  (796) 
idABEPgen8

$$$$

     RDKit          2D

 32 36  0  0  0  0  0  0  0  0999 V2000
    3.0000    0.0000    0.0000 C   0  0  0  0  0  0  0  0  0  0  0  0
    1.5000    0.0000    0.0000 C   0  0  0  0  0  0  0  0  0  0  0  0
    0.7500   -1.2990    0.0000 C   0  0  0  0  0  0  0  0  0  0  0  0
   -0.7500   -1.2990    0.0000 C   0  0  0  0  0  0  0  0  0  0  0  0
   -1.5000    0.0000    0.0000 C   0  0  0  0  0  0  0  0  0  0  0  0
   -3.0000    0.0000    0.0000 C   0  0  0  0  0  0  0  0  0  0  0  0
   -3.8817   -1.2135    0.0000 N   0  0  0  0  0  0  0  0  0  0  0  0
   -5.3083   -0.7500    0.0000 N   0  0  0  0  0  0  0  0  0  0  0  0
   -5.3083    0.7500    0.0000 N   0  0  0  0  0  0  0  0  0  0  0  0
   -3.8817    1.2135    0.0000 N   0  0  0  0  0  0  0  0  0  0  0  0
   -3.4182    2.6401    0.0000 C   0  0  0  0  0  0  0  0  0  0  0  0
   -4.2998    3.8536    0.0000 C   0  0  0  0  0  0  0  0  0  0  0  0
   -3.4182    5.0672    0.0000 C   0  0  0  0  0  0  0  0  0  0  0  0
   -1.9916    4.6036    0.0000 C   0  0  0  0  0  0  0  0  0  0  0  0
   -0.7780    5.4853    0.0000 C   0  0  0  0  0  0  0  0  0  0  0  0
   -0.9348    6.9771    0.0000 O   0  0  0  0  0  0  0  0  0  0  0  0
    0.5923    4.8752    0.0000 N   0  0  0  0  0  0  0  0  0  0  0  0
    1.8058    5.7569    0.0000 C   0  0  0  0  0  0  0  0  0  0  0  0
    1.8058    7.2569    0.0000 N   0  0  0  0  0  0  0  0  0  0  0  0
    3.2324    7.7204    0.0000 N   0  0  0  0  0  0  0  0  0  0  0  0
    4.1141    6.5069    0.0000 N   0  0  0  0  0  0  0  0  0  0  0  0
    3.2324    5.2934    0.0000 N   0  0  0  0  0  0  0  0  0  0  0  0
    3.6959    3.8668    0.0000 C   0  0  0  0  0  0  0  0  0  0  0  0
    2.6922    2.7521    0.0000 C   0  0  0  0  0  0  0  0  0  0  0  0
    3.1557    1.3255    0.0000 C   0  0  0  0  0  0  0  0  0  0  0  0
    4.6230    1.0136    0.0000 C   0  0  0  0  0  0  0  0  0  0  0  0
    5.6267    2.1283    0.0000 C   0  0  0  0  0  0  0  0  0  0  0  0
    5.1631    3.5549    0.0000 C   0  0  0  0  0  0  0  0  0  0  0  0
   -1.9916    3.1036    0.0000 C   0  0  0  0  0  0  0  0  0  0  0  0
   -0.7780    2.2220    0.0000 N   0  0  0  0  0  0  0  0  0  0  0  0
   -0.7500    1.2990    0.0000 C   0  0  0  0  0  0  0  0  0  0  0  0
    0.7500    1.2990    0.0000 C   0  0  0  0  0  0  0  0  0  0  0  0
  1  2  1  0
  2  3  2  0
  3  4  1  0
  4  5  2  0
  5  6  1  0
  6  7  2  0
  7  8  1  0
  8  9  2  0
  9 10  1  0
 10 11  1  0
 11 12  2  0
 12 13  1  0
 13 14  2  0
 14 15  1  0
 15 16  2  0
 15 17  1  0
 17 18  1  0
 18 19  2  0
 19 20  1  0
 20 21  2  0
 21 22  1  0
 22 23  1  0
 23 24  2  0
 24 25  1  0
 25 26  2  0
 26 27  1  0
 27 28  2  0
 14 29  1  0
 29 30  2  0
  5 31  1  0
 31 32  1  0
 32  2  1  0
 10  6  1  0
 29 11  1  0
 22 18  1  0
 28 23  1  0
M  END
>  <Title>  (797) 
idABEQgen8

$$$$

     RDKit          2D

 37 42  0  0  0  0  0  0  0  0999 V2000
    3.0000    0.0000    0.0000 C   0  0  0  0  0  0  0  0  0  0  0  0
    1.5000    0.0000    0.0000 C   0  0  0  0  0  0  0  0  0  0  0  0
    0.7500   -1.2990    0.0000 C   0  0  0  0  0  0  0  0  0  0  0  0
   -0.7500   -1.2990    0.0000 C   0  0  0  0  0  0  0  0  0  0  0  0
   -1.5000    0.0000    0.0000 C   0  0  0  0  0  0  0  0  0  0  0  0
   -3.0000    0.0000    0.0000 C   0  0  0  0  0  0  0  0  0  0  0  0
   -3.8817   -1.2135    0.0000 N   0  0  0  0  0  0  0  0  0  0  0  0
   -5.3083   -0.7500    0.0000 N   0  0  0  0  0  0  0  0  0  0  0  0
   -5.3083    0.7500    0.0000 N   0  0  0  0  0  0  0  0  0  0  0  0
   -3.8817    1.2135    0.0000 N   0  0  0  0  0  0  0  0  0  0  0  0
   -3.4182    2.6401    0.0000 C   0  0  0  0  0  0  0  0  0  0  0  0
   -1.9509    2.9520    0.0000 C   0  0  0  0  0  0  0  0  0  0  0  0
   -1.4874    4.3786    0.0000 C   0  0  0  0  0  0  0  0  0  0  0  0
   -2.4911    5.4933    0.0000 C   0  0  0  0  0  0  0  0  0  0  0  0
   -3.9583    5.1814    0.0000 N   0  0  0  0  0  0  0  0  0  0  0  0
   -4.4218    3.7548    0.0000 C   0  0  0  0  0  0  0  0  0  0  0  0
   -5.8891    3.4430    0.0000 N   0  0  0  0  0  0  0  0  0  0  0  0
   -6.4992    2.0726    0.0000 N   0  0  0  0  0  0  0  0  0  0  0  0
   -7.9910    2.2294    0.0000 N   0  0  0  0  0  0  0  0  0  0  0  0
   -8.3028    3.6967    0.0000 N   0  0  0  0  0  0  0  0  0  0  0  0
   -7.0038    4.4467    0.0000 C   0  0  0  0  0  0  0  0  0  0  0  0
   -6.8470    5.9384    0.0000 N   0  0  0  0  0  0  0  0  0  0  0  0
   -5.4767    6.5485    0.0000 N   0  0  0  0  0  0  0  0  0  0  0  0
   -5.3199    8.0403    0.0000 N   0  0  0  0  0  0  0  0  0  0  0  0
   -6.5334    8.9220    0.0000 N   0  0  0  0  0  0  0  0  0  0  0  0
   -7.9037    8.3119    0.0000 N   0  0  0  0  0  0  0  0  0  0  0  0
   -8.0605    6.8201    0.0000 N   0  0  0  0  0  0  0  0  0  0  0  0
   -9.4308    6.2100    0.0000 C   0  0  0  0  0  0  0  0  0  0  0  0
  -10.6444    7.0917    0.0000 C   0  0  0  0  0  0  0  0  0  0  0  0
  -12.0147    6.4816    0.0000 C   0  0  0  0  0  0  0  0  0  0  0  0
  -12.1715    4.9898    0.0000 C   0  0  0  0  0  0  0  0  0  0  0  0
  -13.5418    4.3797    0.0000 C   0  0  0  0  0  0  0  0  0  0  0  0
  -10.9579    4.1081    0.0000 C   0  0  0  0  0  0  0  0  0  0  0  0
  -11.1147    2.6163    0.0000 O   0  0  0  0  0  0  0  0  0  0  0  0
   -9.5876    4.7182    0.0000 N   0  0  0  0  0  0  0  0  0  0  0  0
   -0.7500    1.2990    0.0000 C   0  0  0  0  0  0  0  0  0  0  0  0
    0.7500    1.2990    0.0000 C   0  0  0  0  0  0  0  0  0  0  0  0
  1  2  1  0
  2  3  2  0
  3  4  1  0
  4  5  2  0
  5  6  1  0
  6  7  2  0
  7  8  1  0
  8  9  2  0
  9 10  1  0
 10 11  1  0
 11 12  1  0
 12 13  1  0
 13 14  1  0
 14 15  1  0
 15 16  1  0
 16 17  1  0
 17 18  1  0
 18 19  2  0
 19 20  1  0
 20 21  2  0
 21 22  1  0
 22 23  1  0
 23 24  2  0
 24 25  1  0
 25 26  2  0
 26 27  1  0
 27 28  1  0
 28 29  2  0
 29 30  1  0
 30 31  2  0
 31 32  1  0
 31 33  1  0
 33 34  2  0
 33 35  1  0
  5 36  1  0
 36 37  2  0
 37  2  1  0
 10  6  1  0
 16 11  1  0
 21 17  1  0
 27 22  1  0
 35 28  1  0
M  END
>  <Title>  (798) 
idABERgen8

$$$$

     RDKit          2D

 48 54  0  0  0  0  0  0  0  0999 V2000
   12.6935    4.7633    0.0000 C   0  0  0  0  0  0  0  0  0  0  0  0
   11.5348    3.8106    0.0000 C   0  0  0  0  0  0  0  0  0  0  0  0
   11.7806    2.3308    0.0000 C   0  0  0  0  0  0  0  0  0  0  0  0
   10.6219    1.3782    0.0000 C   0  0  0  0  0  0  0  0  0  0  0  0
    9.2176    1.9052    0.0000 C   0  0  0  0  0  0  0  0  0  0  0  0
    8.0590    0.9526    0.0000 C   0  0  0  0  0  0  0  0  0  0  0  0
    8.3047   -0.5272    0.0000 O   0  0  0  0  0  0  0  0  0  0  0  0
    6.6546    1.4796    0.0000 N   0  0  0  0  0  0  0  0  0  0  0  0
    5.4960    0.5269    0.0000 C   0  0  0  0  0  0  0  0  0  0  0  0
    5.5857   -0.9704    0.0000 N   0  0  0  0  0  0  0  0  0  0  0  0
    4.1894   -1.5184    0.0000 N   0  0  0  0  0  0  0  0  0  0  0  0
    3.2367   -0.3598    0.0000 N   0  0  0  0  0  0  0  0  0  0  0  0
    4.0442    0.9043    0.0000 N   0  0  0  0  0  0  0  0  0  0  0  0
    3.4962    2.3006    0.0000 C   0  0  0  0  0  0  0  0  0  0  0  0
    4.4315    3.4734    0.0000 C   0  0  0  0  0  0  0  0  0  0  0  0
    3.8835    4.8697    0.0000 C   0  0  0  0  0  0  0  0  0  0  0  0
    2.4002    5.0933    0.0000 C   0  0  0  0  0  0  0  0  0  0  0  0
    1.8522    6.4896    0.0000 C   0  0  0  0  0  0  0  0  0  0  0  0
    0.3689    6.7131    0.0000 C   0  0  0  0  0  0  0  0  0  0  0  0
   -0.1791    8.1094    0.0000 C   0  0  0  0  0  0  0  0  0  0  0  0
    0.7562    9.2822    0.0000 C   0  0  0  0  0  0  0  0  0  0  0  0
    2.2394    9.0586    0.0000 C   0  0  0  0  0  0  0  0  0  0  0  0
    2.7874    7.6623    0.0000 C   0  0  0  0  0  0  0  0  0  0  0  0
    4.2707    7.4388    0.0000 C   0  0  0  0  0  0  0  0  0  0  0  0
    5.2059    8.6115    0.0000 C   0  0  0  0  0  0  0  0  0  0  0  0
    6.6892    8.3879    0.0000 C   0  0  0  0  0  0  0  0  0  0  0  0
    7.2372    6.9916    0.0000 C   0  0  0  0  0  0  0  0  0  0  0  0
    6.3019    5.8189    0.0000 C   0  0  0  0  0  0  0  0  0  0  0  0
    4.8187    6.0424    0.0000 C   0  0  0  0  0  0  0  0  0  0  0  0
    1.4650    3.9205    0.0000 C   0  0  0  0  0  0  0  0  0  0  0  0
    2.0130    2.5242    0.0000 C   0  0  0  0  0  0  0  0  0  0  0  0
    1.0777    1.3515    0.0000 C   0  0  0  0  0  0  0  0  0  0  0  0
    1.7286    0.0000    0.0000 C   0  0  0  0  0  0  0  0  0  0  0  0
    1.0777   -1.3515    0.0000 C   0  0  0  0  0  0  0  0  0  0  0  0
   -0.3846   -1.6852    0.0000 N   0  0  0  0  0  0  0  0  0  0  0  0
   -1.5574   -0.7500    0.0000 N   0  0  0  0  0  0  0  0  0  0  0  0
   -1.5574    0.7500    0.0000 N   0  0  0  0  0  0  0  0  0  0  0  0
   -0.3846    1.6852    0.0000 N   0  0  0  0  0  0  0  0  0  0  0  0
   -0.7184    3.1476    0.0000 C   0  0  0  0  0  0  0  0  0  0  0  0
    0.3812    4.1679    0.0000 C   0  0  0  0  0  0  0  0  0  0  0  0
    0.0474    5.6303    0.0000 C   0  0  0  0  0  0  0  0  0  0  0  0
   -1.3860    6.0724    0.0000 C   0  0  0  0  0  0  0  0  0  0  0  0
   -1.7198    7.5348    0.0000 C   0  0  0  0  0  0  0  0  0  0  0  0
   -2.4856    5.0522    0.0000 C   0  0  0  0  0  0  0  0  0  0  0  0
   -3.9189    5.4943    0.0000 O   0  0  0  0  0  0  0  0  0  0  0  0
   -2.1518    3.5898    0.0000 N   0  0  0  0  0  0  0  0  0  0  0  0
    8.9719    3.3850    0.0000 N   0  0  0  0  0  0  0  0  0  0  0  0
   10.1305    4.3376    0.0000 N   0  0  0  0  0  0  0  0  0  0  0  0
  1  2  1  0
  2  3  2  0
  3  4  1  0
  4  5  2  0
  5  6  1  0
  6  7  2  0
  6  8  1  0
  8  9  1  0
  9 10  2  0
 10 11  1  0
 11 12  2  0
 12 13  1  0
 13 14  1  0
 14 15  2  0
 15 16  1  0
 16 17  2  0
 17 18  1  0
 18 19  2  0
 19 20  1  0
 20 21  2  0
 21 22  1  0
 22 23  2  0
 23 24  1  0
 24 25  2  0
 25 26  1  0
 26 27  2  0
 27 28  1  0
 28 29  2  0
 17 30  1  0
 30 31  2  0
 31 32  1  0
 32 33  2  0
 33 34  1  0
 34 35  2  0
 35 36  1  0
 36 37  2  0
 37 38  1  0
 38 39  1  0
 39 40  2  0
 40 41  1  0
 41 42  2  0
 42 43  1  0
 42 44  1  0
 44 45  2  0
 44 46  1  0
  5 47  1  0
 47 48  2  0
 48  2  1  0
 13  9  1  0
 31 14  1  0
 38 32  1  0
 46 39  1  0
 23 18  1  0
 29 24  1  0
M  END
>  <Title>  (799) 
idABESgen8

$$$$

     RDKit          2D

 12 12  0  0  0  0  0  0  0  0999 V2000
    4.6771   -1.2990    0.0000 O   0  0  0  0  0  0  0  0  0  0  0  0
    3.9271    0.0000    0.0000 C   0  0  0  0  0  0  0  0  0  0  0  0
    2.4271    0.0000    0.0000 C   0  0  0  0  0  0  0  0  0  0  0  0
    1.9635   -1.4266    0.0000 C   0  0  0  0  0  0  0  0  0  0  0  0
    0.7500   -2.3083    0.0000 C   0  0  0  0  0  0  0  0  0  0  0  0
   -0.7500   -2.3083    0.0000 C   0  0  0  0  0  0  0  0  0  0  0  0
   -1.9635   -1.4266    0.0000 C   0  0  0  0  0  0  0  0  0  0  0  0
   -2.4271    0.0000    0.0000 C   0  0  0  0  0  0  0  0  0  0  0  0
   -1.9635    1.4266    0.0000 C   0  0  0  0  0  0  0  0  0  0  0  0
   -0.7500    2.3083    0.0000 C   0  0  0  0  0  0  0  0  0  0  0  0
    0.7500    2.3083    0.0000 C   0  0  0  0  0  0  0  0  0  0  0  0
    1.9635    1.4266    0.0000 C   0  0  0  0  0  0  0  0  0  0  0  0
  1  2  1  0
  2  3  1  0
  3  4  2  0
  4  5  1  0
  5  6  2  0
  6  7  1  0
  7  8  2  0
  8  9  1  0
  9 10  2  0
 10 11  1  0
 11 12  2  0
 12  3  1  0
M  END
>  <Title>  (800) 
idABETgen8

$$$$

     RDKit          2D

 51 59  0  0  0  0  0  0  0  0999 V2000
    3.0000    0.0000    0.0000 C   0  0  0  0  0  0  0  0  0  0  0  0
    1.5000    0.0000    0.0000 C   0  0  0  0  0  0  0  0  0  0  0  0
    0.7500   -1.2990    0.0000 C   0  0  0  0  0  0  0  0  0  0  0  0
   -0.7500   -1.2990    0.0000 C   0  0  0  0  0  0  0  0  0  0  0  0
   -1.5000    0.0000    0.0000 C   0  0  0  0  0  0  0  0  0  0  0  0
   -3.0000    0.0000    0.0000 C   0  0  0  0  0  0  0  0  0  0  0  0
   -3.8817   -1.2135    0.0000 N   0  0  0  0  0  0  0  0  0  0  0  0
   -5.3083   -0.7500    0.0000 N   0  0  0  0  0  0  0  0  0  0  0  0
   -5.3083    0.7500    0.0000 N   0  0  0  0  0  0  0  0  0  0  0  0
   -3.8817    1.2135    0.0000 N   0  0  0  0  0  0  0  0  0  0  0  0
   -3.4182    2.6401    0.0000 C   0  0  0  0  0  0  0  0  0  0  0  0
   -1.9509    2.9520    0.0000 C   0  0  0  0  0  0  0  0  0  0  0  0
   -1.4874    4.3786    0.0000 C   0  0  0  0  0  0  0  0  0  0  0  0
   -2.4911    5.4933    0.0000 C   0  0  0  0  0  0  0  0  0  0  0  0
   -2.0276    6.9199    0.0000 C   0  0  0  0  0  0  0  0  0  0  0  0
   -2.9093    8.1334    0.0000 N   0  0  0  0  0  0  0  0  0  0  0  0
   -2.0276    9.3469    0.0000 N   0  0  0  0  0  0  0  0  0  0  0  0
   -0.6010    8.8834    0.0000 N   0  0  0  0  0  0  0  0  0  0  0  0
   -0.6010    7.3834    0.0000 N   0  0  0  0  0  0  0  0  0  0  0  0
    0.6125    6.5017    0.0000 C   0  0  0  0  0  0  0  0  0  0  0  0
    0.4557    5.0099    0.0000 C   0  0  0  0  0  0  0  0  0  0  0  0
    1.6693    4.1283    0.0000 C   0  0  0  0  0  0  0  0  0  0  0  0
    3.0396    4.7384    0.0000 C   0  0  0  0  0  0  0  0  0  0  0  0
    4.2531    3.8567    0.0000 C   0  0  0  0  0  0  0  0  0  0  0  0
    4.0963    2.3649    0.0000 C   0  0  0  0  0  0  0  0  0  0  0  0
    5.3098    1.4832    0.0000 C   0  0  0  0  0  0  0  0  0  0  0  0
    6.6802    2.0933    0.0000 C   0  0  0  0  0  0  0  0  0  0  0  0
    6.8370    3.5851    0.0000 C   0  0  0  0  0  0  0  0  0  0  0  0
    5.6234    4.4668    0.0000 C   0  0  0  0  0  0  0  0  0  0  0  0
    3.1964    6.2301    0.0000 C   0  0  0  0  0  0  0  0  0  0  0  0
    1.9829    7.1118    0.0000 C   0  0  0  0  0  0  0  0  0  0  0  0
    2.1396    8.6036    0.0000 C   0  0  0  0  0  0  0  0  0  0  0  0
    1.0249    9.6073    0.0000 N   0  0  0  0  0  0  0  0  0  0  0  0
    1.6350   10.9776    0.0000 N   0  0  0  0  0  0  0  0  0  0  0  0
    3.1268   10.8208    0.0000 N   0  0  0  0  0  0  0  0  0  0  0  0
    3.4387    9.3536    0.0000 N   0  0  0  0  0  0  0  0  0  0  0  0
    4.8090    8.7435    0.0000 C   0  0  0  0  0  0  0  0  0  0  0  0
    5.1209    7.2763    0.0000 N   0  0  0  0  0  0  0  0  0  0  0  0
    6.6127    7.1195    0.0000 N   0  0  0  0  0  0  0  0  0  0  0  0
    7.2228    8.4898    0.0000 N   0  0  0  0  0  0  0  0  0  0  0  0
    6.1080    9.4935    0.0000 N   0  0  0  0  0  0  0  0  0  0  0  0
    6.2648   10.9853    0.0000 C   0  0  0  0  0  0  0  0  0  0  0  0
    5.0513   11.8670    0.0000 C   0  0  0  0  0  0  0  0  0  0  0  0
    5.2081   13.3587    0.0000 C   0  0  0  0  0  0  0  0  0  0  0  0
    6.5784   13.9688    0.0000 C   0  0  0  0  0  0  0  0  0  0  0  0
    7.7919   13.0872    0.0000 C   0  0  0  0  0  0  0  0  0  0  0  0
    7.6352   11.5954    0.0000 C   0  0  0  0  0  0  0  0  0  0  0  0
   -3.9583    5.1814    0.0000 C   0  0  0  0  0  0  0  0  0  0  0  0
   -4.4218    3.7548    0.0000 C   0  0  0  0  0  0  0  0  0  0  0  0
   -0.7500    1.2990    0.0000 C   0  0  0  0  0  0  0  0  0  0  0  0
    0.7500    1.2990    0.0000 C   0  0  0  0  0  0  0  0  0  0  0  0
  1  2  1  0
  2  3  2  0
  3  4  1  0
  4  5  2  0
  5  6  1  0
  6  7  2  0
  7  8  1  0
  8  9  2  0
  9 10  1  0
 10 11  1  0
 11 12  2  0
 12 13  1  0
 13 14  2  0
 14 15  1  0
 15 16  2  0
 16 17  1  0
 17 18  2  0
 18 19  1  0
 19 20  1  0
 20 21  2  0
 21 22  1  0
 22 23  2  0
 23 24  1  0
 24 25  2  0
 25 26  1  0
 26 27  2  0
 27 28  1  0
 28 29  2  0
 23 30  1  0
 30 31  2  0
 31 32  1  0
 32 33  2  0
 33 34  1  0
 34 35  2  0
 35 36  1  0
 36 37  1  0
 37 38  2  0
 38 39  1  0
 39 40  2  0
 40 41  1  0
 41 42  1  0
 42 43  2  0
 43 44  1  0
 44 45  2  0
 45 46  1  0
 46 47  2  0
 14 48  1  0
 48 49  2  0
  5 50  1  0
 50 51  2  0
 51  2  1  0
 10  6  1  0
 49 11  1  0
 19 15  1  0
 31 20  1  0
 36 32  1  0
 41 37  1  0
 47 42  1  0
 29 24  1  0
M  END
>  <Title>  (801) 
idABEUgen8

$$$$

     RDKit          2D

 23 25  0  0  0  0  0  0  0  0999 V2000
    3.7500   -1.2990    0.0000 C   0  0  0  0  0  0  0  0  0  0  0  0
    3.0000    0.0000    0.0000 O   0  0  0  0  0  0  0  0  0  0  0  0
    1.5000    0.0000    0.0000 C   0  0  0  0  0  0  0  0  0  0  0  0
    0.7500   -1.2990    0.0000 C   0  0  0  0  0  0  0  0  0  0  0  0
   -0.7500   -1.2990    0.0000 C   0  0  0  0  0  0  0  0  0  0  0  0
   -1.5000    0.0000    0.0000 C   0  0  0  0  0  0  0  0  0  0  0  0
   -3.0000    0.0000    0.0000 C   0  0  0  0  0  0  0  0  0  0  0  0
   -3.7500   -1.2990    0.0000 O   0  0  0  0  0  0  0  0  0  0  0  0
   -3.7500    1.2990    0.0000 N   0  0  0  0  0  0  0  0  0  0  0  0
   -5.2500    1.2990    0.0000 C   0  0  0  0  0  0  0  0  0  0  0  0
   -6.1317    0.0855    0.0000 N   0  0  0  0  0  0  0  0  0  0  0  0
   -7.5583    0.5490    0.0000 N   0  0  0  0  0  0  0  0  0  0  0  0
   -7.5583    2.0490    0.0000 N   0  0  0  0  0  0  0  0  0  0  0  0
   -6.1317    2.5126    0.0000 N   0  0  0  0  0  0  0  0  0  0  0  0
   -5.6682    3.9391    0.0000 C   0  0  0  0  0  0  0  0  0  0  0  0
   -4.2009    4.2510    0.0000 C   0  0  0  0  0  0  0  0  0  0  0  0
   -3.7374    5.6776    0.0000 C   0  0  0  0  0  0  0  0  0  0  0  0
   -4.7411    6.7923    0.0000 C   0  0  0  0  0  0  0  0  0  0  0  0
   -4.2776    8.2189    0.0000 C   0  0  0  0  0  0  0  0  0  0  0  0
   -6.2083    6.4805    0.0000 C   0  0  0  0  0  0  0  0  0  0  0  0
   -6.6718    5.0539    0.0000 C   0  0  0  0  0  0  0  0  0  0  0  0
   -0.7500    1.2990    0.0000 C   0  0  0  0  0  0  0  0  0  0  0  0
    0.7500    1.2990    0.0000 C   0  0  0  0  0  0  0  0  0  0  0  0
  1  2  1  0
  2  3  1  0
  3  4  2  0
  4  5  1  0
  5  6  2  0
  6  7  1  0
  7  8  2  0
  7  9  1  0
  9 10  1  0
 10 11  2  0
 11 12  1  0
 12 13  2  0
 13 14  1  0
 14 15  1  0
 15 16  2  0
 16 17  1  0
 17 18  2  0
 18 19  1  0
 18 20  1  0
 20 21  2  0
  6 22  1  0
 22 23  2  0
 23  3  1  0
 14 10  1  0
 21 15  1  0
M  END
>  <Title>  (802) 
idABEVgen8

$$$$

     RDKit          2D

 27 30  0  0  0  0  0  0  0  0999 V2000
    3.0000    0.0000    0.0000 C   0  0  0  0  0  0  0  0  0  0  0  0
    1.5000    0.0000    0.0000 C   0  0  0  0  0  0  0  0  0  0  0  0
    0.7500   -1.2990    0.0000 C   0  0  0  0  0  0  0  0  0  0  0  0
   -0.7500   -1.2990    0.0000 C   0  0  0  0  0  0  0  0  0  0  0  0
   -1.5000    0.0000    0.0000 C   0  0  0  0  0  0  0  0  0  0  0  0
   -3.0000    0.0000    0.0000 C   0  0  0  0  0  0  0  0  0  0  0  0
   -3.8817   -1.2135    0.0000 N   0  0  0  0  0  0  0  0  0  0  0  0
   -5.3083   -0.7500    0.0000 N   0  0  0  0  0  0  0  0  0  0  0  0
   -5.3083    0.7500    0.0000 N   0  0  0  0  0  0  0  0  0  0  0  0
   -3.8817    1.2135    0.0000 N   0  0  0  0  0  0  0  0  0  0  0  0
   -3.4182    2.6401    0.0000 C   0  0  0  0  0  0  0  0  0  0  0  0
   -2.0816    3.3211    0.0000 C   0  0  0  0  0  0  0  0  0  0  0  0
   -2.7626    4.6576    0.0000 C   0  0  0  0  0  0  0  0  0  0  0  0
   -4.0991    3.9766    0.0000 C   0  0  0  0  0  0  0  0  0  0  0  0
   -5.5257    4.4401    0.0000 C   0  0  0  0  0  0  0  0  0  0  0  0
   -5.8376    5.9074    0.0000 C   0  0  0  0  0  0  0  0  0  0  0  0
   -7.2642    6.3709    0.0000 C   0  0  0  0  0  0  0  0  0  0  0  0
   -8.3789    5.3672    0.0000 C   0  0  0  0  0  0  0  0  0  0  0  0
   -9.8055    5.8307    0.0000 C   0  0  0  0  0  0  0  0  0  0  0  0
  -10.9202    4.8270    0.0000 O   0  0  0  0  0  0  0  0  0  0  0  0
  -10.1173    7.2979    0.0000 N   0  0  0  0  0  0  0  0  0  0  0  0
  -11.5439    7.7615    0.0000 O   0  0  0  0  0  0  0  0  0  0  0  0
   -8.0670    3.9000    0.0000 C   0  0  0  0  0  0  0  0  0  0  0  0
   -6.6404    3.4364    0.0000 C   0  0  0  0  0  0  0  0  0  0  0  0
   -0.7500    1.2990    0.0000 C   0  0  0  0  0  0  0  0  0  0  0  0
   -1.5000    2.5981    0.0000 O   0  0  0  0  0  0  0  0  0  0  0  0
    0.7500    1.2990    0.0000 N   0  0  0  0  0  0  0  0  0  0  0  0
  1  2  1  0
  2  3  2  0
  3  4  1  0
  4  5  2  0
  5  6  1  0
  6  7  2  0
  7  8  1  0
  8  9  2  0
  9 10  1  0
 10 11  1  0
 11 12  2  0
 12 13  1  0
 13 14  2  0
 14 15  1  0
 15 16  2  0
 16 17  1  0
 17 18  2  0
 18 19  1  0
 19 20  2  0
 19 21  1  0
 21 22  1  0
 18 23  1  0
 23 24  1  0
  5 25  1  0
 25 26  2  0
 25 27  1  0
 27  2  1  0
 10  6  1  0
 14 11  1  0
 24 15  1  0
M  END
>  <Title>  (803) 
idABEWgen8

$$$$

     RDKit          2D

  8  8  0  0  0  0  0  0  0  0999 V2000
    3.2286   -0.0000    0.0000 C   0  0  0  0  0  0  0  0  0  0  0  0
    1.7286    0.0000    0.0000 C   0  0  0  0  0  0  0  0  0  0  0  0
    1.0777    1.3515    0.0000 C   0  0  0  0  0  0  0  0  0  0  0  0
   -0.3846    1.6852    0.0000 C   0  0  0  0  0  0  0  0  0  0  0  0
   -1.5574    0.7500    0.0000 C   0  0  0  0  0  0  0  0  0  0  0  0
   -1.5574   -0.7500    0.0000 C   0  0  0  0  0  0  0  0  0  0  0  0
   -0.3846   -1.6852    0.0000 C   0  0  0  0  0  0  0  0  0  0  0  0
    1.0777   -1.3515    0.0000 C   0  0  0  0  0  0  0  0  0  0  0  0
  1  2  1  0
  2  3  2  0
  3  4  1  0
  4  5  2  0
  5  6  1  0
  6  7  2  0
  7  8  1  0
  8  2  1  0
M  END
>  <Title>  (804) 
idABEXgen8

$$$$

     RDKit          2D

 24 26  0  0  0  0  0  0  0  0999 V2000
    3.0000    0.0000    0.0000 C   0  0  0  0  0  0  0  0  0  0  0  0
    1.5000    0.0000    0.0000 C   0  0  0  0  0  0  0  0  0  0  0  0
    0.7500   -1.2990    0.0000 C   0  0  0  0  0  0  0  0  0  0  0  0
   -0.7500   -1.2990    0.0000 C   0  0  0  0  0  0  0  0  0  0  0  0
   -1.5000    0.0000    0.0000 C   0  0  0  0  0  0  0  0  0  0  0  0
   -3.0000    0.0000    0.0000 N   0  0  0  0  0  0  0  0  0  0  0  0
   -3.8817   -1.2135    0.0000 N   0  0  0  0  0  0  0  0  0  0  0  0
   -5.3083   -0.7500    0.0000 N   0  0  0  0  0  0  0  0  0  0  0  0
   -5.3083    0.7500    0.0000 N   0  0  0  0  0  0  0  0  0  0  0  0
   -3.8817    1.2135    0.0000 C   0  0  0  0  0  0  0  0  0  0  0  0
   -3.4182    2.6401    0.0000 N   0  0  0  0  0  0  0  0  0  0  0  0
   -4.4218    3.7548    0.0000 C   0  0  0  0  0  0  0  0  0  0  0  0
   -5.8891    3.4430    0.0000 O   0  0  0  0  0  0  0  0  0  0  0  0
   -3.9583    5.1814    0.0000 C   0  0  0  0  0  0  0  0  0  0  0  0
   -2.4911    5.4933    0.0000 C   0  0  0  0  0  0  0  0  0  0  0  0
   -2.0276    6.9199    0.0000 C   0  0  0  0  0  0  0  0  0  0  0  0
   -3.0313    8.0346    0.0000 C   0  0  0  0  0  0  0  0  0  0  0  0
   -2.5677    9.4612    0.0000 C   0  0  0  0  0  0  0  0  0  0  0  0
   -4.4985    7.7227    0.0000 C   0  0  0  0  0  0  0  0  0  0  0  0
   -5.5022    8.8374    0.0000 C   0  0  0  0  0  0  0  0  0  0  0  0
   -4.9620    6.2961    0.0000 C   0  0  0  0  0  0  0  0  0  0  0  0
   -0.7500    1.2990    0.0000 N   0  0  0  0  0  0  0  0  0  0  0  0
    0.7500    1.2990    0.0000 C   0  0  0  0  0  0  0  0  0  0  0  0
    1.5000    2.5981    0.0000 O   0  0  0  0  0  0  0  0  0  0  0  0
  1  2  1  0
  2  3  2  0
  3  4  1  0
  4  5  2  0
  5  6  1  0
  6  7  1  0
  7  8  2  0
  8  9  1  0
  9 10  2  0
 10 11  1  0
 11 12  1  0
 12 13  2  0
 12 14  1  0
 14 15  2  0
 15 16  1  0
 16 17  2  0
 17 18  1  0
 17 19  1  0
 19 20  1  0
 19 21  2  0
  5 22  1  0
 22 23  1  0
 23 24  2  0
 23  2  1  0
 10  6  1  0
 21 14  1  0
M  END
>  <Title>  (805) 
idABEYgen8

$$$$

     RDKit          2D

 11 11  0  0  0  0  0  0  0  0999 V2000
    3.4598   -0.0000    0.0000 C   0  0  0  0  0  0  0  0  0  0  0  0
    1.9598    0.0000    0.0000 C   0  0  0  0  0  0  0  0  0  0  0  0
    1.3858   -1.3858    0.0000 C   0  0  0  0  0  0  0  0  0  0  0  0
   -0.0000   -1.9598    0.0000 C   0  0  0  0  0  0  0  0  0  0  0  0
   -1.3858   -1.3858    0.0000 C   0  0  0  0  0  0  0  0  0  0  0  0
   -1.9598    0.0000    0.0000 C   0  0  0  0  0  0  0  0  0  0  0  0
   -1.3858    1.3858    0.0000 C   0  0  0  0  0  0  0  0  0  0  0  0
   -2.4465    2.4465    0.0000 F   0  0  0  0  0  0  0  0  0  0  0  0
    0.0000    1.9598    0.0000 C   0  0  0  0  0  0  0  0  0  0  0  0
    1.3858    1.3858    0.0000 C   0  0  0  0  0  0  0  0  0  0  0  0
    2.4465    2.4465    0.0000 N   0  0  0  0  0  0  0  0  0  0  0  0
  1  2  1  0
  2  3  2  0
  3  4  1  0
  4  5  2  0
  5  6  1  0
  6  7  2  0
  7  8  1  0
  7  9  1  0
  9 10  2  0
 10 11  1  0
 10  2  1  0
M  END
>  <Title>  (806) 
idABEZgen8

$$$$

     RDKit          2D

 35 39  0  0  0  0  0  0  0  0999 V2000
    3.0000    0.0000    0.0000 C   0  0  0  0  0  0  0  0  0  0  0  0
    1.5000    0.0000    0.0000 C   0  0  0  0  0  0  0  0  0  0  0  0
    0.7500   -1.2990    0.0000 C   0  0  0  0  0  0  0  0  0  0  0  0
   -0.7500   -1.2990    0.0000 C   0  0  0  0  0  0  0  0  0  0  0  0
   -1.5000    0.0000    0.0000 C   0  0  0  0  0  0  0  0  0  0  0  0
   -3.0000    0.0000    0.0000 C   0  0  0  0  0  0  0  0  0  0  0  0
   -3.7500   -1.2990    0.0000 O   0  0  0  0  0  0  0  0  0  0  0  0
   -3.7500    1.2990    0.0000 N   0  0  0  0  0  0  0  0  0  0  0  0
   -5.2500    1.2990    0.0000 C   0  0  0  0  0  0  0  0  0  0  0  0
   -6.1317    0.0855    0.0000 N   0  0  0  0  0  0  0  0  0  0  0  0
   -7.5583    0.5490    0.0000 N   0  0  0  0  0  0  0  0  0  0  0  0
   -7.5583    2.0490    0.0000 N   0  0  0  0  0  0  0  0  0  0  0  0
   -6.1317    2.5126    0.0000 N   0  0  0  0  0  0  0  0  0  0  0  0
   -5.6682    3.9391    0.0000 C   0  0  0  0  0  0  0  0  0  0  0  0
   -4.2009    4.2510    0.0000 C   0  0  0  0  0  0  0  0  0  0  0  0
   -3.7374    5.6776    0.0000 C   0  0  0  0  0  0  0  0  0  0  0  0
   -4.7411    6.7923    0.0000 C   0  0  0  0  0  0  0  0  0  0  0  0
   -6.2083    6.4805    0.0000 C   0  0  0  0  0  0  0  0  0  0  0  0
   -6.6718    5.0539    0.0000 C   0  0  0  0  0  0  0  0  0  0  0  0
   -8.1391    4.7420    0.0000 N   0  0  0  0  0  0  0  0  0  0  0  0
   -8.6026    3.3154    0.0000 C   0  0  0  0  0  0  0  0  0  0  0  0
  -10.0698    3.0035    0.0000 C   0  0  0  0  0  0  0  0  0  0  0  0
  -11.0735    4.1183    0.0000 C   0  0  0  0  0  0  0  0  0  0  0  0
  -10.6100    5.5448    0.0000 N   0  0  0  0  0  0  0  0  0  0  0  0
   -9.1428    5.8567    0.0000 C   0  0  0  0  0  0  0  0  0  0  0  0
   -8.6792    7.2833    0.0000 C   0  0  0  0  0  0  0  0  0  0  0  0
   -9.6829    8.3980    0.0000 C   0  0  0  0  0  0  0  0  0  0  0  0
   -9.2194    9.8246    0.0000 C   0  0  0  0  0  0  0  0  0  0  0  0
   -7.7522   10.1365    0.0000 C   0  0  0  0  0  0  0  0  0  0  0  0
   -7.2887   11.5631    0.0000 C   0  0  0  0  0  0  0  0  0  0  0  0
   -6.7485    9.0218    0.0000 C   0  0  0  0  0  0  0  0  0  0  0  0
   -5.2813    9.3336    0.0000 O   0  0  0  0  0  0  0  0  0  0  0  0
   -7.2120    7.5952    0.0000 N   0  0  0  0  0  0  0  0  0  0  0  0
   -0.7500    1.2990    0.0000 C   0  0  0  0  0  0  0  0  0  0  0  0
    0.7500    1.2990    0.0000 C   0  0  0  0  0  0  0  0  0  0  0  0
  1  2  1  0
  2  3  2  0
  3  4  1  0
  4  5  2  0
  5  6  1  0
  6  7  2  0
  6  8  1  0
  8  9  1  0
  9 10  2  0
 10 11  1  0
 11 12  2  0
 12 13  1  0
 13 14  1  0
 14 15  2  0
 15 16  1  0
 16 17  2  0
 17 18  1  0
 18 19  2  0
 19 20  1  0
 20 21  1  0
 21 22  2  0
 22 23  1  0
 23 24  2  0
 24 25  1  0
 25 26  1  0
 26 27  2  0
 27 28  1  0
 28 29  2  0
 29 30  1  0
 29 31  1  0
 31 32  2  0
 31 33  1  0
  5 34  1  0
 34 35  2  0
 35  2  1  0
 13  9  1  0
 19 14  1  0
 25 20  1  0
 33 26  1  0
M  END
>  <Title>  (807) 
idABFAgen8

$$$$

     RDKit          2D

 16 16  0  0  0  0  0  0  0  0999 V2000
    5.6205   -1.2990    0.0000 C   0  0  0  0  0  0  0  0  0  0  0  0
    4.8705    0.0000    0.0000 O   0  0  0  0  0  0  0  0  0  0  0  0
    3.3705    0.0000    0.0000 C   0  0  0  0  0  0  0  0  0  0  0  0
    3.0367   -1.4624    0.0000 C   0  0  0  0  0  0  0  0  0  0  0  0
    2.1015   -2.6351    0.0000 C   0  0  0  0  0  0  0  0  0  0  0  0
    0.7500   -3.2860    0.0000 C   0  0  0  0  0  0  0  0  0  0  0  0
   -0.7500   -3.2860    0.0000 C   0  0  0  0  0  0  0  0  0  0  0  0
   -2.1015   -2.6351    0.0000 C   0  0  0  0  0  0  0  0  0  0  0  0
   -3.0367   -1.4624    0.0000 C   0  0  0  0  0  0  0  0  0  0  0  0
   -3.3705    0.0000    0.0000 C   0  0  0  0  0  0  0  0  0  0  0  0
   -3.0367    1.4624    0.0000 C   0  0  0  0  0  0  0  0  0  0  0  0
   -2.1015    2.6351    0.0000 C   0  0  0  0  0  0  0  0  0  0  0  0
   -0.7500    3.2860    0.0000 C   0  0  0  0  0  0  0  0  0  0  0  0
    0.7500    3.2860    0.0000 C   0  0  0  0  0  0  0  0  0  0  0  0
    2.1015    2.6351    0.0000 C   0  0  0  0  0  0  0  0  0  0  0  0
    3.0367    1.4624    0.0000 C   0  0  0  0  0  0  0  0  0  0  0  0
  1  2  1  0
  2  3  1  0
  3  4  2  0
  4  5  1  0
  5  6  2  0
  6  7  1  0
  7  8  2  0
  8  9  1  0
  9 10  2  0
 10 11  1  0
 11 12  2  0
 12 13  1  0
 13 14  2  0
 14 15  1  0
 15 16  2  0
 16  3  1  0
M  END
>  <Title>  (808) 
idABFBgen8

$$$$

     RDKit          2D

 39 44  0  0  0  0  0  0  0  0999 V2000
    3.0000    0.0000    0.0000 C   0  0  0  0  0  0  0  0  0  0  0  0
    1.5000    0.0000    0.0000 C   0  0  0  0  0  0  0  0  0  0  0  0
    0.7500   -1.2990    0.0000 C   0  0  0  0  0  0  0  0  0  0  0  0
   -0.7500   -1.2990    0.0000 C   0  0  0  0  0  0  0  0  0  0  0  0
   -1.5000    0.0000    0.0000 C   0  0  0  0  0  0  0  0  0  0  0  0
   -3.0000    0.0000    0.0000 C   0  0  0  0  0  0  0  0  0  0  0  0
   -3.8817   -1.2135    0.0000 N   0  0  0  0  0  0  0  0  0  0  0  0
   -5.3083   -0.7500    0.0000 N   0  0  0  0  0  0  0  0  0  0  0  0
   -5.3083    0.7500    0.0000 N   0  0  0  0  0  0  0  0  0  0  0  0
   -3.8817    1.2135    0.0000 N   0  0  0  0  0  0  0  0  0  0  0  0
   -3.4182    2.6401    0.0000 C   0  0  0  0  0  0  0  0  0  0  0  0
   -4.2998    3.8536    0.0000 C   0  0  0  0  0  0  0  0  0  0  0  0
   -3.4182    5.0672    0.0000 C   0  0  0  0  0  0  0  0  0  0  0  0
   -1.9916    4.6036    0.0000 C   0  0  0  0  0  0  0  0  0  0  0  0
   -0.7780    5.4853    0.0000 C   0  0  0  0  0  0  0  0  0  0  0  0
    0.5923    4.8752    0.0000 O   0  0  0  0  0  0  0  0  0  0  0  0
   -0.9348    6.9771    0.0000 N   0  0  0  0  0  0  0  0  0  0  0  0
    0.2787    7.8588    0.0000 C   0  0  0  0  0  0  0  0  0  0  0  0
    1.7053    7.3952    0.0000 N   0  0  0  0  0  0  0  0  0  0  0  0
    2.5870    8.6088    0.0000 N   0  0  0  0  0  0  0  0  0  0  0  0
    1.7053    9.8223    0.0000 N   0  0  0  0  0  0  0  0  0  0  0  0
    0.2787    9.3588    0.0000 N   0  0  0  0  0  0  0  0  0  0  0  0
   -0.9348   10.2405    0.0000 C   0  0  0  0  0  0  0  0  0  0  0  0
   -2.3614    9.7769    0.0000 C   0  0  0  0  0  0  0  0  0  0  0  0
   -3.2431   10.9905    0.0000 C   0  0  0  0  0  0  0  0  0  0  0  0
   -2.3614   12.2040    0.0000 C   0  0  0  0  0  0  0  0  0  0  0  0
   -2.8249   13.6306    0.0000 C   0  0  0  0  0  0  0  0  0  0  0  0
   -4.2922   13.9424    0.0000 C   0  0  0  0  0  0  0  0  0  0  0  0
   -4.7557   15.3690    0.0000 C   0  0  0  0  0  0  0  0  0  0  0  0
   -3.7520   16.4837    0.0000 C   0  0  0  0  0  0  0  0  0  0  0  0
   -2.2848   16.1719    0.0000 C   0  0  0  0  0  0  0  0  0  0  0  0
   -1.8212   14.7453    0.0000 C   0  0  0  0  0  0  0  0  0  0  0  0
   -0.9348   11.7405    0.0000 C   0  0  0  0  0  0  0  0  0  0  0  0
    0.2787   12.6221    0.0000 O   0  0  0  0  0  0  0  0  0  0  0  0
   -1.9916    3.1036    0.0000 C   0  0  0  0  0  0  0  0  0  0  0  0
   -0.7780    2.2220    0.0000 O   0  0  0  0  0  0  0  0  0  0  0  0
   -0.7500    1.2990    0.0000 N   0  0  0  0  0  0  0  0  0  0  0  0
    0.7500    1.2990    0.0000 C   0  0  0  0  0  0  0  0  0  0  0  0
    1.5000    2.5981    0.0000 O   0  0  0  0  0  0  0  0  0  0  0  0
  1  2  1  0
  2  3  2  0
  3  4  1  0
  4  5  2  0
  5  6  1  0
  6  7  2  0
  7  8  1  0
  8  9  2  0
  9 10  1  0
 10 11  1  0
 11 12  2  0
 12 13  1  0
 13 14  2  0
 14 15  1  0
 15 16  2  0
 15 17  1  0
 17 18  1  0
 18 19  2  0
 19 20  1  0
 20 21  2  0
 21 22  1  0
 22 23  1  0
 23 24  2  0
 24 25  1  0
 25 26  2  0
 26 27  1  0
 27 28  2  0
 28 29  1  0
 29 30  2  0
 30 31  1  0
 31 32  2  0
 26 33  1  0
 33 34  2  0
 14 35  1  0
 35 36  2  0
  5 37  1  0
 37 38  1  0
 38 39  2  0
 38  2  1  0
 10  6  1  0
 35 11  1  0
 22 18  1  0
 33 23  1  0
 32 27  1  0
M  END
>  <Title>  (809) 
idABFCgen8

$$$$

     RDKit          2D

 57 65  0  0  0  0  0  0  0  0999 V2000
    5.2509   -6.9203    0.0000 C   0  0  0  0  0  0  0  0  0  0  0  0
    3.8089   -7.3333    0.0000 C   0  0  0  0  0  0  0  0  0  0  0  0
    3.8347   -8.8331    0.0000 C   0  0  0  0  0  0  0  0  0  0  0  0
    3.1072  -10.1449    0.0000 C   0  0  0  0  0  0  0  0  0  0  0  0
    1.8212  -10.9171    0.0000 C   0  0  0  0  0  0  0  0  0  0  0  0
    2.2343  -12.3591    0.0000 C   0  0  0  0  0  0  0  0  0  0  0  0
    1.1920  -13.4378    0.0000 C   0  0  0  0  0  0  0  0  0  0  0  0
    1.6051  -14.8798    0.0000 C   0  0  0  0  0  0  0  0  0  0  0  0
    3.0605  -15.2431    0.0000 C   0  0  0  0  0  0  0  0  0  0  0  0
    4.1027  -14.1643    0.0000 C   0  0  0  0  0  0  0  0  0  0  0  0
    3.6897  -12.7223    0.0000 C   0  0  0  0  0  0  0  0  0  0  0  0
    4.7319  -11.6436    0.0000 C   0  0  0  0  0  0  0  0  0  0  0  0
    0.3214  -10.9429    0.0000 C   0  0  0  0  0  0  0  0  0  0  0  0
    0.0348  -12.4153    0.0000 N   0  0  0  0  0  0  0  0  0  0  0  0
   -1.4540  -12.5977    0.0000 N   0  0  0  0  0  0  0  0  0  0  0  0
   -2.0876  -11.2381    0.0000 N   0  0  0  0  0  0  0  0  0  0  0  0
   -0.9903  -10.2153    0.0000 N   0  0  0  0  0  0  0  0  0  0  0  0
   -3.0367   -9.6945    0.0000 C   0  0  0  0  0  0  0  0  0  0  0  0
   -4.3881   -9.0437    0.0000 C   0  0  0  0  0  0  0  0  0  0  0  0
   -5.3234   -7.8710    0.0000 C   0  0  0  0  0  0  0  0  0  0  0  0
   -5.6572   -6.4086    0.0000 C   0  0  0  0  0  0  0  0  0  0  0  0
   -7.1572   -6.4086    0.0000 C   0  0  0  0  0  0  0  0  0  0  0  0
   -7.9072   -5.1095    0.0000 C   0  0  0  0  0  0  0  0  0  0  0  0
   -9.4072   -5.1095    0.0000 C   0  0  0  0  0  0  0  0  0  0  0  0
  -10.1572   -6.4086    0.0000 C   0  0  0  0  0  0  0  0  0  0  0  0
   -9.4072   -7.7076    0.0000 C   0  0  0  0  0  0  0  0  0  0  0  0
   -7.9072   -7.7076    0.0000 C   0  0  0  0  0  0  0  0  0  0  0  0
   -5.3234   -4.9462    0.0000 C   0  0  0  0  0  0  0  0  0  0  0  0
   -4.3881   -3.7734    0.0000 C   0  0  0  0  0  0  0  0  0  0  0  0
   -3.0367   -3.1226    0.0000 C   0  0  0  0  0  0  0  0  0  0  0  0
   -3.3705   -4.5850    0.0000 N   0  0  0  0  0  0  0  0  0  0  0  0
   -2.8907   -4.8601    0.0000 N   0  0  0  0  0  0  0  0  0  0  0  0
   -3.4066   -5.3625    0.0000 N   0  0  0  0  0  0  0  0  0  0  0  0
   -2.7238   -5.5913    0.0000 N   0  0  0  0  0  0  0  0  0  0  0  0
   -3.0367   -6.0474    0.0000 C   0  0  0  0  0  0  0  0  0  0  0  0
   -2.1015   -7.2201    0.0000 N   0  0  0  0  0  0  0  0  0  0  0  0
   -0.7500   -7.8710    0.0000 C   0  0  0  0  0  0  0  0  0  0  0  0
   -1.0838   -9.3334    0.0000 O   0  0  0  0  0  0  0  0  0  0  0  0
    0.7500   -7.8710    0.0000 C   0  0  0  0  0  0  0  0  0  0  0  0
   -0.1852   -9.0437    0.0000 C   0  0  0  0  0  0  0  0  0  0  0  0
   -1.5367   -9.6945    0.0000 C   0  0  0  0  0  0  0  0  0  0  0  0
    2.1015   -7.2201    0.0000 C   0  0  0  0  0  0  0  0  0  0  0  0
    3.0367   -6.0474    0.0000 C   0  0  0  0  0  0  0  0  0  0  0  0
    3.3705   -4.5850    0.0000 C   0  0  0  0  0  0  0  0  0  0  0  0
    4.4547   -3.5484    0.0000 C   0  0  0  0  0  0  0  0  0  0  0  0
    3.8038   -2.1970    0.0000 C   0  0  0  0  0  0  0  0  0  0  0  0
    2.1015   -1.9499    0.0000 C   0  0  0  0  0  0  0  0  0  0  0  0
    3.0367   -3.1226    0.0000 C   0  0  0  0  0  0  0  0  0  0  0  0
    4.5055   -2.8181    0.0000 O   0  0  0  0  0  0  0  0  0  0  0  0
    0.7500   -1.2990    0.0000 C   0  0  0  0  0  0  0  0  0  0  0  0
    1.5000    0.0000    0.0000 N   0  0  0  0  0  0  0  0  0  0  0  0
    0.7500    1.2990    0.0000 N   0  0  0  0  0  0  0  0  0  0  0  0
   -0.7500    1.2990    0.0000 N   0  0  0  0  0  0  0  0  0  0  0  0
   -1.5000    0.0000    0.0000 N   0  0  0  0  0  0  0  0  0  0  0  0
   -0.7500   -1.2990    0.0000 C   0  0  0  0  0  0  0  0  0  0  0  0
   -2.1015   -1.9499    0.0000 C   0  0  0  0  0  0  0  0  0  0  0  0
   -3.0367   -0.7771    0.0000 O   0  0  0  0  0  0  0  0  0  0  0  0
  1  2  1  0
  2  3  2  0
  3  4  1  0
  4  5  2  0
  5  6  1  0
  6  7  2  0
  7  8  1  0
  8  9  2  0
  9 10  1  0
 10 11  2  0
 11 12  1  0
  5 13  1  0
 13 14  2  0
 14 15  1  0
 15 16  2  0
 16 17  1  0
 17 18  1  0
 18 19  1  0
 19 20  2  0
 20 21  1  0
 21 22  1  0
 22 23  2  0
 23 24  1  0
 24 25  2  0
 25 26  1  0
 26 27  2  0
 21 28  2  0
 28 29  1  0
 29 30  2  0
 30 31  1  0
 31 32  1  0
 32 33  2  0
 33 34  1  0
 34 35  2  0
 35 36  1  0
 36 37  1  0
 37 38  2  0
 37 39  1  0
 39 40  2  0
 40 41  1  0
 39 42  1  0
 42 43  2  0
 43 44  1  0
 44 45  2  0
 45 46  1  0
 46 47  2  0
 47 48  1  0
 48 49  2  0
 47 50  1  0
 50 51  2  0
 51 52  1  0
 52 53  2  0
 53 54  1  0
 54 55  2  0
 55 56  1  0
 56 57  2  0
 43  2  1  0
 48 44  1  0
 55 50  1  0
 11  6  1  0
 17 13  1  0
 41 18  2  0
 27 22  1  0
 56 30  1  0
 35 31  1  0
M  END
>  <Title>  (810) 
idABFDgen8

$$$$

     RDKit          2D

  7  7  0  0  0  0  0  0  0  0999 V2000
    1.7286    0.0000    0.0000 C   0  0  0  0  0  0  0  0  0  0  0  0
    1.0777    1.3515    0.0000 C   0  0  0  0  0  0  0  0  0  0  0  0
   -0.3846    1.6852    0.0000 C   0  0  0  0  0  0  0  0  0  0  0  0
   -1.5574    0.7500    0.0000 C   0  0  0  0  0  0  0  0  0  0  0  0
   -1.5574   -0.7500    0.0000 C   0  0  0  0  0  0  0  0  0  0  0  0
   -0.3846   -1.6852    0.0000 C   0  0  0  0  0  0  0  0  0  0  0  0
    1.0777   -1.3515    0.0000 C   0  0  0  0  0  0  0  0  0  0  0  0
  1  2  1  0
  2  3  1  0
  3  4  1  0
  4  5  1  0
  5  6  1  0
  6  7  1  0
  7  1  1  0
M  END
>  <Title>  (811) 
idABFEgen8

$$$$

     RDKit          2D

 33 37  0  0  0  0  0  0  0  0999 V2000
   -6.7898    1.4588    0.0000 C   0  0  0  0  0  0  0  0  0  0  0  0
   -5.3139    1.7266    0.0000 C   0  0  0  0  0  0  0  0  0  0  0  0
   -4.6631    3.0781    0.0000 C   0  0  0  0  0  0  0  0  0  0  0  0
   -3.1767    2.8767    0.0000 C   0  0  0  0  0  0  0  0  0  0  0  0
   -2.9088    1.4008    0.0000 C   0  0  0  0  0  0  0  0  0  0  0  0
   -1.5574    0.7500    0.0000 N   0  0  0  0  0  0  0  0  0  0  0  0
   -1.5574   -0.7500    0.0000 N   0  0  0  0  0  0  0  0  0  0  0  0
   -0.3846   -1.6852    0.0000 N   0  0  0  0  0  0  0  0  0  0  0  0
    1.0777   -1.3515    0.0000 N   0  0  0  0  0  0  0  0  0  0  0  0
    1.7286    0.0000    0.0000 N   0  0  0  0  0  0  0  0  0  0  0  0
    1.0777    1.3515    0.0000 C   0  0  0  0  0  0  0  0  0  0  0  0
   -0.3846    1.6852    0.0000 C   0  0  0  0  0  0  0  0  0  0  0  0
   -0.7184    3.1476    0.0000 C   0  0  0  0  0  0  0  0  0  0  0  0
   -2.0977    3.7372    0.0000 C   0  0  0  0  0  0  0  0  0  0  0  0
   -1.9633    5.2311    0.0000 C   0  0  0  0  0  0  0  0  0  0  0  0
   -0.5009    5.5649    0.0000 C   0  0  0  0  0  0  0  0  0  0  0  0
    0.0887    6.9442    0.0000 N   0  0  0  0  0  0  0  0  0  0  0  0
    1.5511    7.2780    0.0000 N   0  0  0  0  0  0  0  0  0  0  0  0
    1.6855    8.7719    0.0000 N   0  0  0  0  0  0  0  0  0  0  0  0
    0.3062    9.3615    0.0000 N   0  0  0  0  0  0  0  0  0  0  0  0
   -0.6807    8.2319    0.0000 C   0  0  0  0  0  0  0  0  0  0  0  0
   -2.1746    8.3663    0.0000 C   0  0  0  0  0  0  0  0  0  0  0  0
   -3.0381    7.1398    0.0000 C   0  0  0  0  0  0  0  0  0  0  0  0
   -4.5320    7.2742    0.0000 C   0  0  0  0  0  0  0  0  0  0  0  0
   -5.1626    8.6352    0.0000 C   0  0  0  0  0  0  0  0  0  0  0  0
   -6.6565    8.7697    0.0000 C   0  0  0  0  0  0  0  0  0  0  0  0
   -4.2991    9.8618    0.0000 N   0  0  0  0  0  0  0  0  0  0  0  0
   -2.8052    9.7274    0.0000 C   0  0  0  0  0  0  0  0  0  0  0  0
   -1.9417   10.9539    0.0000 O   0  0  0  0  0  0  0  0  0  0  0  0
    0.2685    4.2772    0.0000 C   0  0  0  0  0  0  0  0  0  0  0  0
    1.7624    4.1428    0.0000 O   0  0  0  0  0  0  0  0  0  0  0  0
   -4.2297    0.6900    0.0000 C   0  0  0  0  0  0  0  0  0  0  0  0
   -4.4311   -0.7964    0.0000 O   0  0  0  0  0  0  0  0  0  0  0  0
  1  2  1  0
  2  3  2  0
  3  4  1  0
  4  5  2  0
  5  6  1  0
  6  7  1  0
  7  8  2  0
  8  9  1  0
  9 10  2  0
 10 11  1  0
 11 12  2  0
 12 13  1  0
 13 14  2  0
 14 15  1  0
 15 16  2  0
 16 17  1  0
 17 18  1  0
 18 19  2  0
 19 20  1  0
 20 21  2  0
 21 22  1  0
 22 23  2  0
 23 24  1  0
 24 25  2  0
 25 26  1  0
 25 27  1  0
 27 28  1  0
 28 29  2  0
 16 30  1  0
 30 31  2  0
  5 32  1  0
 32 33  2  0
 32  2  1  0
 12  6  1  0
 30 13  1  0
 21 17  1  0
 28 22  1  0
M  END
>  <Title>  (812) 
idABFFgen8

$$$$

     RDKit          2D

 43 49  0  0  0  0  0  0  0  0999 V2000
  -10.1624    4.2767    0.0000 C   0  0  0  0  0  0  0  0  0  0  0  0
   -8.9488    3.3950    0.0000 C   0  0  0  0  0  0  0  0  0  0  0  0
   -9.1056    1.9033    0.0000 C   0  0  0  0  0  0  0  0  0  0  0  0
   -7.8921    1.0216    0.0000 C   0  0  0  0  0  0  0  0  0  0  0  0
   -6.5218    1.6317    0.0000 C   0  0  0  0  0  0  0  0  0  0  0  0
   -5.3083    0.7500    0.0000 C   0  0  0  0  0  0  0  0  0  0  0  0
   -5.3083   -0.7500    0.0000 N   0  0  0  0  0  0  0  0  0  0  0  0
   -3.8817   -1.2135    0.0000 N   0  0  0  0  0  0  0  0  0  0  0  0
   -3.0000    0.0000    0.0000 N   0  0  0  0  0  0  0  0  0  0  0  0
   -3.8817    1.2135    0.0000 N   0  0  0  0  0  0  0  0  0  0  0  0
   -3.4182    2.6401    0.0000 C   0  0  0  0  0  0  0  0  0  0  0  0
   -4.2998    3.8536    0.0000 N   0  0  0  0  0  0  0  0  0  0  0  0
   -3.4182    5.0672    0.0000 C   0  0  0  0  0  0  0  0  0  0  0  0
   -1.9916    4.6036    0.0000 N   0  0  0  0  0  0  0  0  0  0  0  0
   -1.9916    3.1036    0.0000 N   0  0  0  0  0  0  0  0  0  0  0  0
   -0.7780    2.2220    0.0000 C   0  0  0  0  0  0  0  0  0  0  0  0
   -0.9348    0.7302    0.0000 C   0  0  0  0  0  0  0  0  0  0  0  0
    0.2787   -0.1515    0.0000 C   0  0  0  0  0  0  0  0  0  0  0  0
    1.6490    0.4586    0.0000 C   0  0  0  0  0  0  0  0  0  0  0  0
    2.8625   -0.4231    0.0000 C   0  0  0  0  0  0  0  0  0  0  0  0
    2.7057   -1.9149    0.0000 C   0  0  0  0  0  0  0  0  0  0  0  0
    3.9193   -2.7965    0.0000 C   0  0  0  0  0  0  0  0  0  0  0  0
    5.2896   -2.1864    0.0000 C   0  0  0  0  0  0  0  0  0  0  0  0
    5.4464   -0.6946    0.0000 C   0  0  0  0  0  0  0  0  0  0  0  0
    4.2329    0.1870    0.0000 C   0  0  0  0  0  0  0  0  0  0  0  0
    4.3896    1.6788    0.0000 C   0  0  0  0  0  0  0  0  0  0  0  0
    5.7600    2.2889    0.0000 C   0  0  0  0  0  0  0  0  0  0  0  0
    5.9168    3.7807    0.0000 C   0  0  0  0  0  0  0  0  0  0  0  0
    4.7032    4.6624    0.0000 C   0  0  0  0  0  0  0  0  0  0  0  0
    3.3329    4.0523    0.0000 C   0  0  0  0  0  0  0  0  0  0  0  0
    3.1761    2.5605    0.0000 C   0  0  0  0  0  0  0  0  0  0  0  0
    1.8058    1.9504    0.0000 C   0  0  0  0  0  0  0  0  0  0  0  0
    0.5923    2.8321    0.0000 C   0  0  0  0  0  0  0  0  0  0  0  0
    0.7491    4.3238    0.0000 C   0  0  0  0  0  0  0  0  0  0  0  0
    2.1194    4.9340    0.0000 C   0  0  0  0  0  0  0  0  0  0  0  0
    2.2762    6.4257    0.0000 C   0  0  0  0  0  0  0  0  0  0  0  0
    1.0627    7.3074    0.0000 C   0  0  0  0  0  0  0  0  0  0  0  0
    1.2194    8.7992    0.0000 C   0  0  0  0  0  0  0  0  0  0  0  0
   -0.3077    6.6973    0.0000 C   0  0  0  0  0  0  0  0  0  0  0  0
   -1.5212    7.5790    0.0000 O   0  0  0  0  0  0  0  0  0  0  0  0
   -0.4645    5.2055    0.0000 N   0  0  0  0  0  0  0  0  0  0  0  0
   -6.3650    3.1235    0.0000 C   0  0  0  0  0  0  0  0  0  0  0  0
   -7.5785    4.0051    0.0000 C   0  0  0  0  0  0  0  0  0  0  0  0
  1  2  1  0
  2  3  2  0
  3  4  1  0
  4  5  2  0
  5  6  1  0
  6  7  2  0
  7  8  1  0
  8  9  2  0
  9 10  1  0
 10 11  1  0
 11 12  2  0
 12 13  1  0
 13 14  2  0
 14 15  1  0
 15 16  1  0
 16 17  2  0
 17 18  1  0
 18 19  2  0
 19 20  1  0
 20 21  2  0
 21 22  1  0
 22 23  2  0
 23 24  1  0
 24 25  2  0
 25 26  1  0
 26 27  2  0
 27 28  1  0
 28 29  2  0
 29 30  1  0
 30 31  2  0
 19 32  1  0
 32 33  2  0
 33 34  1  0
 34 35  2  0
 35 36  1  0
 36 37  2  0
 37 38  1  0
 37 39  1  0
 39 40  2  0
 39 41  1  0
  5 42  1  0
 42 43  2  0
 43  2  1  0
 10  6  1  0
 15 11  1  0
 33 16  1  0
 41 34  1  0
 25 20  1  0
 31 26  1  0
M  END
>  <Title>  (813) 
idABFGgen8

$$$$

     RDKit          2D

 19 19  0  0  0  0  0  0  0  0999 V2000
    5.8191    0.0000    0.0000 C   0  0  0  0  0  0  0  0  0  0  0  0
    4.3191    0.0000    0.0000 C   0  0  0  0  0  0  0  0  0  0  0  0
    4.0586   -1.4772    0.0000 C   0  0  0  0  0  0  0  0  0  0  0  0
    3.3086   -2.7762    0.0000 C   0  0  0  0  0  0  0  0  0  0  0  0
    2.1595   -3.7404    0.0000 C   0  0  0  0  0  0  0  0  0  0  0  0
    0.7500   -4.2535    0.0000 C   0  0  0  0  0  0  0  0  0  0  0  0
   -0.7500   -4.2535    0.0000 C   0  0  0  0  0  0  0  0  0  0  0  0
   -2.1595   -3.7404    0.0000 C   0  0  0  0  0  0  0  0  0  0  0  0
   -3.3086   -2.7762    0.0000 C   0  0  0  0  0  0  0  0  0  0  0  0
   -4.0586   -1.4772    0.0000 C   0  0  0  0  0  0  0  0  0  0  0  0
   -4.3191    0.0000    0.0000 C   0  0  0  0  0  0  0  0  0  0  0  0
   -4.0586    1.4772    0.0000 C   0  0  0  0  0  0  0  0  0  0  0  0
   -3.3086    2.7762    0.0000 C   0  0  0  0  0  0  0  0  0  0  0  0
   -2.1595    3.7404    0.0000 C   0  0  0  0  0  0  0  0  0  0  0  0
   -0.7500    4.2535    0.0000 C   0  0  0  0  0  0  0  0  0  0  0  0
    0.7500    4.2535    0.0000 N   0  0  0  0  0  0  0  0  0  0  0  0
    2.1595    3.7404    0.0000 N   0  0  0  0  0  0  0  0  0  0  0  0
    3.3086    2.7762    0.0000 C   0  0  0  0  0  0  0  0  0  0  0  0
    4.0586    1.4772    0.0000 C   0  0  0  0  0  0  0  0  0  0  0  0
  1  2  1  0
  2  3  2  0
  3  4  1  0
  4  5  2  0
  5  6  1  0
  6  7  2  0
  7  8  1  0
  8  9  2  0
  9 10  1  0
 10 11  2  0
 11 12  1  0
 12 13  2  0
 13 14  1  0
 14 15  2  0
 15 16  1  0
 16 17  2  0
 17 18  1  0
 18 19  2  0
 19  2  1  0
M  END
>  <Title>  (814) 
idABFHgen8

$$$$

     RDKit          2D

 22 22  0  0  0  0  0  0  0  0999 V2000
    7.0443   -1.2990    0.0000 O   0  0  0  0  0  0  0  0  0  0  0  0
    6.2943    0.0000    0.0000 C   0  0  0  0  0  0  0  0  0  0  0  0
    4.7943    0.0000    0.0000 C   0  0  0  0  0  0  0  0  0  0  0  0
    4.5597   -1.4815    0.0000 C   0  0  0  0  0  0  0  0  0  0  0  0
    3.8787   -2.8180    0.0000 C   0  0  0  0  0  0  0  0  0  0  0  0
    2.8180   -3.8787    0.0000 C   0  0  0  0  0  0  0  0  0  0  0  0
    1.4815   -4.5597    0.0000 C   0  0  0  0  0  0  0  0  0  0  0  0
   -0.0000   -4.7943    0.0000 C   0  0  0  0  0  0  0  0  0  0  0  0
   -1.4815   -4.5597    0.0000 C   0  0  0  0  0  0  0  0  0  0  0  0
   -2.8180   -3.8787    0.0000 C   0  0  0  0  0  0  0  0  0  0  0  0
   -3.8787   -2.8180    0.0000 C   0  0  0  0  0  0  0  0  0  0  0  0
   -4.5597   -1.4815    0.0000 C   0  0  0  0  0  0  0  0  0  0  0  0
   -4.7943    0.0000    0.0000 C   0  0  0  0  0  0  0  0  0  0  0  0
   -4.5597    1.4815    0.0000 C   0  0  0  0  0  0  0  0  0  0  0  0
   -3.8787    2.8180    0.0000 C   0  0  0  0  0  0  0  0  0  0  0  0
   -2.8180    3.8787    0.0000 C   0  0  0  0  0  0  0  0  0  0  0  0
   -1.4815    4.5597    0.0000 C   0  0  0  0  0  0  0  0  0  0  0  0
    0.0000    4.7943    0.0000 C   0  0  0  0  0  0  0  0  0  0  0  0
    1.4815    4.5597    0.0000 C   0  0  0  0  0  0  0  0  0  0  0  0
    2.8180    3.8787    0.0000 C   0  0  0  0  0  0  0  0  0  0  0  0
    3.8787    2.8180    0.0000 C   0  0  0  0  0  0  0  0  0  0  0  0
    4.5597    1.4815    0.0000 C   0  0  0  0  0  0  0  0  0  0  0  0
  1  2  1  0
  2  3  1  0
  3  4  2  0
  4  5  1  0
  5  6  2  0
  6  7  1  0
  7  8  2  0
  8  9  1  0
  9 10  2  0
 10 11  1  0
 11 12  2  0
 12 13  1  0
 13 14  2  0
 14 15  1  0
 15 16  2  0
 16 17  1  0
 17 18  2  0
 18 19  1  0
 19 20  2  0
 20 21  1  0
 21 22  2  0
 22  3  1  0
M  END
>  <Title>  (815) 
idABFIgen8

$$$$

     RDKit          2D

 10 10  0  0  0  0  0  0  0  0999 V2000
    3.4598   -0.0000    0.0000 C   0  0  0  0  0  0  0  0  0  0  0  0
    1.9598    0.0000    0.0000 C   0  0  0  0  0  0  0  0  0  0  0  0
    1.3858   -1.3858    0.0000 C   0  0  0  0  0  0  0  0  0  0  0  0
   -0.0000   -1.9598    0.0000 C   0  0  0  0  0  0  0  0  0  0  0  0
   -1.3858   -1.3858    0.0000 C   0  0  0  0  0  0  0  0  0  0  0  0
   -1.9598    0.0000    0.0000 C   0  0  0  0  0  0  0  0  0  0  0  0
   -1.3858    1.3858    0.0000 C   0  0  0  0  0  0  0  0  0  0  0  0
   -2.4465    2.4465    0.0000 C   0  0  0  0  0  0  0  0  0  0  0  0
    0.0000    1.9598    0.0000 C   0  0  0  0  0  0  0  0  0  0  0  0
    1.3858    1.3858    0.0000 C   0  0  0  0  0  0  0  0  0  0  0  0
  1  2  1  0
  2  3  2  0
  3  4  1  0
  4  5  2  0
  5  6  1  0
  6  7  2  0
  7  8  1  0
  7  9  1  0
  9 10  2  0
 10  2  1  0
M  END
>  <Title>  (816) 
idABFJgen8

$$$$

     RDKit          2D

 39 44  0  0  0  0  0  0  0  0999 V2000
    3.0000    0.0000    0.0000 C   0  0  0  0  0  0  0  0  0  0  0  0
    1.5000    0.0000    0.0000 C   0  0  0  0  0  0  0  0  0  0  0  0
    0.7500   -1.2990    0.0000 C   0  0  0  0  0  0  0  0  0  0  0  0
   -0.7500   -1.2990    0.0000 C   0  0  0  0  0  0  0  0  0  0  0  0
   -1.5000    0.0000    0.0000 C   0  0  0  0  0  0  0  0  0  0  0  0
   -3.0000    0.0000    0.0000 C   0  0  0  0  0  0  0  0  0  0  0  0
   -3.7500   -1.2990    0.0000 O   0  0  0  0  0  0  0  0  0  0  0  0
   -3.7500    1.2990    0.0000 N   0  0  0  0  0  0  0  0  0  0  0  0
   -5.2500    1.2990    0.0000 C   0  0  0  0  0  0  0  0  0  0  0  0
   -6.1317    0.0855    0.0000 N   0  0  0  0  0  0  0  0  0  0  0  0
   -7.5583    0.5490    0.0000 N   0  0  0  0  0  0  0  0  0  0  0  0
   -7.5583    2.0490    0.0000 N   0  0  0  0  0  0  0  0  0  0  0  0
   -6.1317    2.5126    0.0000 N   0  0  0  0  0  0  0  0  0  0  0  0
   -5.6682    3.9391    0.0000 C   0  0  0  0  0  0  0  0  0  0  0  0
   -4.2009    4.2510    0.0000 C   0  0  0  0  0  0  0  0  0  0  0  0
   -3.7374    5.6776    0.0000 C   0  0  0  0  0  0  0  0  0  0  0  0
   -4.7411    6.7923    0.0000 C   0  0  0  0  0  0  0  0  0  0  0  0
   -4.2776    8.2189    0.0000 C   0  0  0  0  0  0  0  0  0  0  0  0
   -5.1593    9.4324    0.0000 N   0  0  0  0  0  0  0  0  0  0  0  0
   -4.2776   10.6460    0.0000 N   0  0  0  0  0  0  0  0  0  0  0  0
   -2.8510   10.1824    0.0000 N   0  0  0  0  0  0  0  0  0  0  0  0
   -2.8510    8.6824    0.0000 N   0  0  0  0  0  0  0  0  0  0  0  0
   -1.6375    7.8008    0.0000 C   0  0  0  0  0  0  0  0  0  0  0  0
   -1.7943    6.3090    0.0000 C   0  0  0  0  0  0  0  0  0  0  0  0
   -0.5807    5.4273    0.0000 C   0  0  0  0  0  0  0  0  0  0  0  0
    0.7896    6.0374    0.0000 C   0  0  0  0  0  0  0  0  0  0  0  0
    2.0031    5.1557    0.0000 C   0  0  0  0  0  0  0  0  0  0  0  0
    1.8463    3.6639    0.0000 C   0  0  0  0  0  0  0  0  0  0  0  0
    3.0598    2.7823    0.0000 C   0  0  0  0  0  0  0  0  0  0  0  0
    4.4302    3.3924    0.0000 C   0  0  0  0  0  0  0  0  0  0  0  0
    4.5870    4.8841    0.0000 C   0  0  0  0  0  0  0  0  0  0  0  0
    3.3734    5.7658    0.0000 C   0  0  0  0  0  0  0  0  0  0  0  0
    0.9464    7.5292    0.0000 C   0  0  0  0  0  0  0  0  0  0  0  0
   -0.2671    8.4109    0.0000 C   0  0  0  0  0  0  0  0  0  0  0  0
   -6.2083    6.4805    0.0000 C   0  0  0  0  0  0  0  0  0  0  0  0
   -6.6718    5.0539    0.0000 C   0  0  0  0  0  0  0  0  0  0  0  0
   -0.7500    1.2990    0.0000 C   0  0  0  0  0  0  0  0  0  0  0  0
   -1.5000    2.5981    0.0000 O   0  0  0  0  0  0  0  0  0  0  0  0
    0.7500    1.2990    0.0000 N   0  0  0  0  0  0  0  0  0  0  0  0
  1  2  1  0
  2  3  2  0
  3  4  1  0
  4  5  2  0
  5  6  1  0
  6  7  2  0
  6  8  1  0
  8  9  1  0
  9 10  2  0
 10 11  1  0
 11 12  2  0
 12 13  1  0
 13 14  1  0
 14 15  2  0
 15 16  1  0
 16 17  2  0
 17 18  1  0
 18 19  2  0
 19 20  1  0
 20 21  2  0
 21 22  1  0
 22 23  1  0
 23 24  2  0
 24 25  1  0
 25 26  2  0
 26 27  1  0
 27 28  2  0
 28 29  1  0
 29 30  2  0
 30 31  1  0
 31 32  2  0
 26 33  1  0
 33 34  2  0
 17 35  1  0
 35 36  2  0
  5 37  1  0
 37 38  2  0
 37 39  1  0
 39  2  1  0
 13  9  1  0
 36 14  1  0
 22 18  1  0
 34 23  1  0
 32 27  1  0
M  END
>  <Title>  (817) 
idABFKgen8

$$$$

     RDKit          2D

 13 13  0  0  0  0  0  0  0  0999 V2000
    4.1621    0.0000    0.0000 C   0  0  0  0  0  0  0  0  0  0  0  0
    2.6621    0.0000    0.0000 C   0  0  0  0  0  0  0  0  0  0  0  0
    2.2395    1.4392    0.0000 C   0  0  0  0  0  0  0  0  0  0  0  0
    1.1059    2.4215    0.0000 C   0  0  0  0  0  0  0  0  0  0  0  0
   -0.3789    2.6350    0.0000 C   0  0  0  0  0  0  0  0  0  0  0  0
   -1.7433    2.0119    0.0000 N   0  0  0  0  0  0  0  0  0  0  0  0
   -2.7256    3.1455    0.0000 C   0  0  0  0  0  0  0  0  0  0  0  0
   -2.5543    0.7500    0.0000 C   0  0  0  0  0  0  0  0  0  0  0  0
   -2.5543   -0.7500    0.0000 C   0  0  0  0  0  0  0  0  0  0  0  0
   -1.7433   -2.0119    0.0000 C   0  0  0  0  0  0  0  0  0  0  0  0
   -0.3789   -2.6350    0.0000 C   0  0  0  0  0  0  0  0  0  0  0  0
    1.1059   -2.4215    0.0000 C   0  0  0  0  0  0  0  0  0  0  0  0
    2.2395   -1.4392    0.0000 C   0  0  0  0  0  0  0  0  0  0  0  0
  1  2  1  0
  2  3  2  0
  3  4  1  0
  4  5  2  0
  5  6  1  0
  6  7  1  0
  6  8  1  0
  8  9  1  0
  9 10  1  0
 10 11  1  0
 11 12  1  0
 12 13  1  0
 13  2  1  0
M  END
>  <Title>  (818) 
idABFLgen8

$$$$

     RDKit          2D

 41 47  0  0  0  0  0  0  0  0999 V2000
   -7.0025    9.9019    0.0000 C   0  0  0  0  0  0  0  0  0  0  0  0
   -5.6321   10.5120    0.0000 O   0  0  0  0  0  0  0  0  0  0  0  0
   -4.4186    9.6303    0.0000 C   0  0  0  0  0  0  0  0  0  0  0  0
   -4.5754    8.1386    0.0000 C   0  0  0  0  0  0  0  0  0  0  0  0
   -3.3619    7.2569    0.0000 C   0  0  0  0  0  0  0  0  0  0  0  0
   -1.9916    7.8670    0.0000 C   0  0  0  0  0  0  0  0  0  0  0  0
   -0.7780    6.9853    0.0000 C   0  0  0  0  0  0  0  0  0  0  0  0
    0.6485    7.4488    0.0000 N   0  0  0  0  0  0  0  0  0  0  0  0
    1.5302    6.2353    0.0000 N   0  0  0  0  0  0  0  0  0  0  0  0
    0.6485    5.0218    0.0000 N   0  0  0  0  0  0  0  0  0  0  0  0
   -0.7780    5.4853    0.0000 N   0  0  0  0  0  0  0  0  0  0  0  0
   -1.9916    4.6036    0.0000 C   0  0  0  0  0  0  0  0  0  0  0  0
   -3.4182    5.0672    0.0000 C   0  0  0  0  0  0  0  0  0  0  0  0
   -4.2998    3.8536    0.0000 N   0  0  0  0  0  0  0  0  0  0  0  0
   -3.4182    2.6401    0.0000 N   0  0  0  0  0  0  0  0  0  0  0  0
   -1.9916    3.1036    0.0000 N   0  0  0  0  0  0  0  0  0  0  0  0
   -0.7780    2.2220    0.0000 C   0  0  0  0  0  0  0  0  0  0  0  0
    0.6485    2.6855    0.0000 C   0  0  0  0  0  0  0  0  0  0  0  0
    1.5302    1.4720    0.0000 C   0  0  0  0  0  0  0  0  0  0  0  0
    0.6485    0.2584    0.0000 C   0  0  0  0  0  0  0  0  0  0  0  0
    1.1121   -1.1682    0.0000 C   0  0  0  0  0  0  0  0  0  0  0  0
    2.5387   -1.6317    0.0000 N   0  0  0  0  0  0  0  0  0  0  0  0
    2.5387   -3.1317    0.0000 N   0  0  0  0  0  0  0  0  0  0  0  0
    1.1121   -3.5952    0.0000 N   0  0  0  0  0  0  0  0  0  0  0  0
    0.2304   -2.3817    0.0000 N   0  0  0  0  0  0  0  0  0  0  0  0
   -1.2696   -2.3817    0.0000 C   0  0  0  0  0  0  0  0  0  0  0  0
   -2.1513   -1.1682    0.0000 N   0  0  0  0  0  0  0  0  0  0  0  0
   -3.5779   -1.6317    0.0000 N   0  0  0  0  0  0  0  0  0  0  0  0
   -3.5779   -3.1317    0.0000 N   0  0  0  0  0  0  0  0  0  0  0  0
   -2.1513   -3.5952    0.0000 N   0  0  0  0  0  0  0  0  0  0  0  0
   -1.6878   -5.0218    0.0000 C   0  0  0  0  0  0  0  0  0  0  0  0
   -0.2205   -5.3337    0.0000 C   0  0  0  0  0  0  0  0  0  0  0  0
    0.2430   -6.7602    0.0000 C   0  0  0  0  0  0  0  0  0  0  0  0
   -0.7607   -7.8750    0.0000 C   0  0  0  0  0  0  0  0  0  0  0  0
   -2.2279   -7.5631    0.0000 C   0  0  0  0  0  0  0  0  0  0  0  0
   -2.6915   -6.1365    0.0000 C   0  0  0  0  0  0  0  0  0  0  0  0
   -0.7780    0.7220    0.0000 C   0  0  0  0  0  0  0  0  0  0  0  0
   -1.9916   -0.1597    0.0000 O   0  0  0  0  0  0  0  0  0  0  0  0
   -1.8348    9.3588    0.0000 C   0  0  0  0  0  0  0  0  0  0  0  0
   -0.4645    9.9689    0.0000 O   0  0  0  0  0  0  0  0  0  0  0  0
   -3.0483   10.2405    0.0000 N   0  0  0  0  0  0  0  0  0  0  0  0
  1  2  1  0
  2  3  1  0
  3  4  2  0
  4  5  1  0
  5  6  2  0
  6  7  1  0
  7  8  2  0
  8  9  1  0
  9 10  2  0
 10 11  1  0
 11 12  1  0
 12 13  2  0
 13 14  1  0
 14 15  2  0
 15 16  1  0
 16 17  1  0
 17 18  2  0
 18 19  1  0
 19 20  2  0
 20 21  1  0
 21 22  2  0
 22 23  1  0
 23 24  2  0
 24 25  1  0
 25 26  1  0
 26 27  2  0
 27 28  1  0
 28 29  2  0
 29 30  1  0
 30 31  1  0
 31 32  2  0
 32 33  1  0
 33 34  2  0
 34 35  1  0
 35 36  2  0
 20 37  1  0
 37 38  2  0
  6 39  1  0
 39 40  2  0
 39 41  1  0
 41  3  1  0
 11  7  1  0
 16 12  1  0
 37 17  1  0
 25 21  1  0
 30 26  1  0
 36 31  1  0
M  END
>  <Title>  (819) 
idABFMgen8

$$$$

     RDKit          2D

 24 24  0  0  0  0  0  0  0  0999 V2000
    6.7700    0.0000    0.0000 C   0  0  0  0  0  0  0  0  0  0  0  0
    5.2700    0.0000    0.0000 C   0  0  0  0  0  0  0  0  0  0  0  0
    5.0565   -1.4847    0.0000 C   0  0  0  0  0  0  0  0  0  0  0  0
    4.4334   -2.8492    0.0000 C   0  0  0  0  0  0  0  0  0  0  0  0
    3.4511   -3.9828    0.0000 C   0  0  0  0  0  0  0  0  0  0  0  0
    2.1892   -4.7938    0.0000 C   0  0  0  0  0  0  0  0  0  0  0  0
    0.7500   -5.2164    0.0000 C   0  0  0  0  0  0  0  0  0  0  0  0
   -0.7500   -5.2164    0.0000 C   0  0  0  0  0  0  0  0  0  0  0  0
   -2.1892   -4.7938    0.0000 C   0  0  0  0  0  0  0  0  0  0  0  0
   -3.4511   -3.9828    0.0000 C   0  0  0  0  0  0  0  0  0  0  0  0
   -4.4334   -2.8492    0.0000 C   0  0  0  0  0  0  0  0  0  0  0  0
   -5.0565   -1.4847    0.0000 C   0  0  0  0  0  0  0  0  0  0  0  0
   -5.2700    0.0000    0.0000 C   0  0  0  0  0  0  0  0  0  0  0  0
   -5.0565    1.4847    0.0000 C   0  0  0  0  0  0  0  0  0  0  0  0
   -4.4334    2.8492    0.0000 C   0  0  0  0  0  0  0  0  0  0  0  0
   -3.4511    3.9828    0.0000 C   0  0  0  0  0  0  0  0  0  0  0  0
   -2.1892    4.7938    0.0000 C   0  0  0  0  0  0  0  0  0  0  0  0
   -0.7500    5.2164    0.0000 C   0  0  0  0  0  0  0  0  0  0  0  0
    0.7500    5.2164    0.0000 C   0  0  0  0  0  0  0  0  0  0  0  0
    2.1892    4.7938    0.0000 C   0  0  0  0  0  0  0  0  0  0  0  0
    3.4511    3.9828    0.0000 C   0  0  0  0  0  0  0  0  0  0  0  0
    4.4334    2.8492    0.0000 C   0  0  0  0  0  0  0  0  0  0  0  0
    5.0565    1.4847    0.0000 C   0  0  0  0  0  0  0  0  0  0  0  0
    6.4958    1.9073    0.0000 O   0  0  0  0  0  0  0  0  0  0  0  0
  1  2  1  0
  2  3  2  0
  3  4  1  0
  4  5  2  0
  5  6  1  0
  6  7  2  0
  7  8  1  0
  8  9  2  0
  9 10  1  0
 10 11  2  0
 11 12  1  0
 12 13  2  0
 13 14  1  0
 14 15  2  0
 15 16  1  0
 16 17  2  0
 17 18  1  0
 18 19  2  0
 19 20  1  0
 20 21  2  0
 21 22  1  0
 22 23  2  0
 23 24  1  0
 23  2  1  0
M  END
>  <Title>  (820) 
idABFNgen8

$$$$

     RDKit          2D

 34 38  0  0  0  0  0  0  0  0999 V2000
    3.7500   -1.2990    0.0000 C   0  0  0  0  0  0  0  0  0  0  0  0
    3.0000    0.0000    0.0000 O   0  0  0  0  0  0  0  0  0  0  0  0
    1.5000    0.0000    0.0000 C   0  0  0  0  0  0  0  0  0  0  0  0
    0.7500   -1.2990    0.0000 C   0  0  0  0  0  0  0  0  0  0  0  0
   -0.7500   -1.2990    0.0000 C   0  0  0  0  0  0  0  0  0  0  0  0
   -1.5000    0.0000    0.0000 C   0  0  0  0  0  0  0  0  0  0  0  0
   -3.0000    0.0000    0.0000 C   0  0  0  0  0  0  0  0  0  0  0  0
   -3.8817   -1.2135    0.0000 N   0  0  0  0  0  0  0  0  0  0  0  0
   -5.3083   -0.7500    0.0000 N   0  0  0  0  0  0  0  0  0  0  0  0
   -5.3083    0.7500    0.0000 N   0  0  0  0  0  0  0  0  0  0  0  0
   -3.8817    1.2135    0.0000 N   0  0  0  0  0  0  0  0  0  0  0  0
   -3.4182    2.6401    0.0000 C   0  0  0  0  0  0  0  0  0  0  0  0
   -4.2998    3.8536    0.0000 C   0  0  0  0  0  0  0  0  0  0  0  0
   -3.4182    5.0672    0.0000 C   0  0  0  0  0  0  0  0  0  0  0  0
   -1.9916    4.6036    0.0000 C   0  0  0  0  0  0  0  0  0  0  0  0
   -0.7780    5.4853    0.0000 C   0  0  0  0  0  0  0  0  0  0  0  0
    0.6485    5.0218    0.0000 N   0  0  0  0  0  0  0  0  0  0  0  0
    1.5302    6.2353    0.0000 N   0  0  0  0  0  0  0  0  0  0  0  0
    0.6485    7.4488    0.0000 N   0  0  0  0  0  0  0  0  0  0  0  0
   -0.7780    6.9853    0.0000 N   0  0  0  0  0  0  0  0  0  0  0  0
   -1.9916    7.8670    0.0000 C   0  0  0  0  0  0  0  0  0  0  0  0
   -3.3619    7.2569    0.0000 C   0  0  0  0  0  0  0  0  0  0  0  0
   -4.5754    8.1386    0.0000 C   0  0  0  0  0  0  0  0  0  0  0  0
   -4.4186    9.6303    0.0000 C   0  0  0  0  0  0  0  0  0  0  0  0
   -5.6321   10.5120    0.0000 C   0  0  0  0  0  0  0  0  0  0  0  0
   -5.4754   12.0038    0.0000 O   0  0  0  0  0  0  0  0  0  0  0  0
   -7.0025    9.9019    0.0000 N   0  0  0  0  0  0  0  0  0  0  0  0
   -8.2160   10.7836    0.0000 O   0  0  0  0  0  0  0  0  0  0  0  0
   -3.0483   10.2405    0.0000 N   0  0  0  0  0  0  0  0  0  0  0  0
   -1.8348    9.3588    0.0000 C   0  0  0  0  0  0  0  0  0  0  0  0
   -0.4645    9.9689    0.0000 O   0  0  0  0  0  0  0  0  0  0  0  0
   -1.9916    3.1036    0.0000 N   0  0  0  0  0  0  0  0  0  0  0  0
   -0.7500    1.2990    0.0000 C   0  0  0  0  0  0  0  0  0  0  0  0
    0.7500    1.2990    0.0000 C   0  0  0  0  0  0  0  0  0  0  0  0
  1  2  1  0
  2  3  1  0
  3  4  2  0
  4  5  1  0
  5  6  2  0
  6  7  1  0
  7  8  2  0
  8  9  1  0
  9 10  2  0
 10 11  1  0
 11 12  1  0
 12 13  2  0
 13 14  1  0
 14 15  2  0
 15 16  1  0
 16 17  2  0
 17 18  1  0
 18 19  2  0
 19 20  1  0
 20 21  1  0
 21 22  2  0
 22 23  1  0
 23 24  2  0
 24 25  1  0
 25 26  2  0
 25 27  1  0
 27 28  1  0
 24 29  1  0
 29 30  1  0
 30 31  2  0
 15 32  1  0
  6 33  1  0
 33 34  2  0
 34  3  1  0
 11  7  1  0
 32 12  1  0
 20 16  1  0
 30 21  1  0
M  END
>  <Title>  (821) 
idABFOgen8

$$$$

     RDKit          2D

 26 29  0  0  0  0  0  0  0  0999 V2000
   -4.0035    6.0784    0.0000 C   0  0  0  0  0  0  0  0  0  0  0  0
   -2.5991    5.5513    0.0000 C   0  0  0  0  0  0  0  0  0  0  0  0
   -2.3534    4.0716    0.0000 C   0  0  0  0  0  0  0  0  0  0  0  0
   -0.9491    3.5445    0.0000 C   0  0  0  0  0  0  0  0  0  0  0  0
    0.2096    4.4972    0.0000 C   0  0  0  0  0  0  0  0  0  0  0  0
    1.6139    3.9701    0.0000 C   0  0  0  0  0  0  0  0  0  0  0  0
    2.8658    4.7965    0.0000 N   0  0  0  0  0  0  0  0  0  0  0  0
    4.0385    3.8613    0.0000 N   0  0  0  0  0  0  0  0  0  0  0  0
    3.5115    2.4569    0.0000 N   0  0  0  0  0  0  0  0  0  0  0  0
    2.0130    2.5242    0.0000 N   0  0  0  0  0  0  0  0  0  0  0  0
    1.0777    1.3515    0.0000 C   0  0  0  0  0  0  0  0  0  0  0  0
   -0.3846    1.6852    0.0000 C   0  0  0  0  0  0  0  0  0  0  0  0
   -1.5574    0.7500    0.0000 C   0  0  0  0  0  0  0  0  0  0  0  0
   -1.5574   -0.7500    0.0000 N   0  0  0  0  0  0  0  0  0  0  0  0
   -0.3846   -1.6852    0.0000 N   0  0  0  0  0  0  0  0  0  0  0  0
    1.0777   -1.3515    0.0000 N   0  0  0  0  0  0  0  0  0  0  0  0
    1.7286    0.0000    0.0000 N   0  0  0  0  0  0  0  0  0  0  0  0
    3.2286    0.0000    0.0000 C   0  0  0  0  0  0  0  0  0  0  0  0
    3.9786    1.2990    0.0000 C   0  0  0  0  0  0  0  0  0  0  0  0
    5.4786    1.2990    0.0000 C   0  0  0  0  0  0  0  0  0  0  0  0
    6.2286    0.0000    0.0000 C   0  0  0  0  0  0  0  0  0  0  0  0
    5.4786   -1.2990    0.0000 C   0  0  0  0  0  0  0  0  0  0  0  0
    3.9786   -1.2990    0.0000 N   0  0  0  0  0  0  0  0  0  0  0  0
   -0.0362    5.9769    0.0000 C   0  0  0  0  0  0  0  0  0  0  0  0
    1.1225    6.9296    0.0000 O   0  0  0  0  0  0  0  0  0  0  0  0
   -1.4405    6.5040    0.0000 N   0  0  0  0  0  0  0  0  0  0  0  0
  1  2  1  0
  2  3  2  0
  3  4  1  0
  4  5  2  0
  5  6  1  0
  6  7  2  0
  7  8  1  0
  8  9  2  0
  9 10  1  0
 10 11  1  0
 11 12  2  0
 12 13  1  0
 13 14  2  0
 14 15  1  0
 15 16  2  0
 16 17  1  0
 17 18  1  0
 18 19  2  0
 19 20  1  0
 20 21  2  0
 21 22  1  0
 22 23  2  0
  5 24  1  0
 24 25  2  0
 24 26  1  0
 26  2  1  0
 10  6  1  0
 17 11  1  0
 23 18  1  0
M  END
>  <Title>  (822) 
idABFPgen8

$$$$

     RDKit          2D

 41 46  0  0  0  0  0  0  0  0999 V2000
  -16.6394   -2.6913    0.0000 C   0  0  0  0  0  0  0  0  0  0  0  0
  -15.1935   -2.2923    0.0000 C   0  0  0  0  0  0  0  0  0  0  0  0
  -14.9257   -0.8164    0.0000 C   0  0  0  0  0  0  0  0  0  0  0  0
  -13.6048   -0.1056    0.0000 C   0  0  0  0  0  0  0  0  0  0  0  0
  -12.2255   -0.6951    0.0000 N   0  0  0  0  0  0  0  0  0  0  0  0
  -11.8264   -2.1410    0.0000 C   0  0  0  0  0  0  0  0  0  0  0  0
  -10.3505   -2.4089    0.0000 C   0  0  0  0  0  0  0  0  0  0  0  0
   -9.8445   -3.8210    0.0000 O   0  0  0  0  0  0  0  0  0  0  0  0
   -9.3806   -1.2646    0.0000 N   0  0  0  0  0  0  0  0  0  0  0  0
   -7.9047   -1.5325    0.0000 C   0  0  0  0  0  0  0  0  0  0  0  0
   -7.2539   -2.8839    0.0000 N   0  0  0  0  0  0  0  0  0  0  0  0
   -5.7675   -2.6826    0.0000 N   0  0  0  0  0  0  0  0  0  0  0  0
   -5.4997   -1.2067    0.0000 N   0  0  0  0  0  0  0  0  0  0  0  0
   -6.8205   -0.4959    0.0000 N   0  0  0  0  0  0  0  0  0  0  0  0
   -7.0219    0.9906    0.0000 C   0  0  0  0  0  0  0  0  0  0  0  0
   -8.3428    1.7014    0.0000 N   0  0  0  0  0  0  0  0  0  0  0  0
   -8.0750    3.1773    0.0000 N   0  0  0  0  0  0  0  0  0  0  0  0
   -6.5885    3.3786    0.0000 N   0  0  0  0  0  0  0  0  0  0  0  0
   -5.9377    2.0272    0.0000 N   0  0  0  0  0  0  0  0  0  0  0  0
   -4.4618    1.7593    0.0000 C   0  0  0  0  0  0  0  0  0  0  0  0
   -3.4919    2.9036    0.0000 C   0  0  0  0  0  0  0  0  0  0  0  0
   -2.0160    2.6357    0.0000 C   0  0  0  0  0  0  0  0  0  0  0  0
   -1.5100    1.2236    0.0000 C   0  0  0  0  0  0  0  0  0  0  0  0
   -0.0341    0.9558    0.0000 C   0  0  0  0  0  0  0  0  0  0  0  0
    0.3649   -0.4901    0.0000 C   0  0  0  0  0  0  0  0  0  0  0  0
    1.7442   -1.0797    0.0000 C   0  0  0  0  0  0  0  0  0  0  0  0
    3.0651   -0.3689    0.0000 N   0  0  0  0  0  0  0  0  0  0  0  0
    3.3329    1.1070    0.0000 N   0  0  0  0  0  0  0  0  0  0  0  0
    2.3460    2.2366    0.0000 N   0  0  0  0  0  0  0  0  0  0  0  0
    0.8475    2.1693    0.0000 N   0  0  0  0  0  0  0  0  0  0  0  0
    0.1367    3.4902    0.0000 C   0  0  0  0  0  0  0  0  0  0  0  0
   -1.3626    3.5351    0.0000 C   0  0  0  0  0  0  0  0  0  0  0  0
   -2.0734    4.8560    0.0000 C   0  0  0  0  0  0  0  0  0  0  0  0
   -1.2849    6.1320    0.0000 C   0  0  0  0  0  0  0  0  0  0  0  0
    0.2145    6.0871    0.0000 C   0  0  0  0  0  0  0  0  0  0  0  0
    0.9253    4.7662    0.0000 C   0  0  0  0  0  0  0  0  0  0  0  0
   -2.4799    0.0794    0.0000 C   0  0  0  0  0  0  0  0  0  0  0  0
   -3.9558    0.3472    0.0000 C   0  0  0  0  0  0  0  0  0  0  0  0
  -12.7081   -3.3546    0.0000 C   0  0  0  0  0  0  0  0  0  0  0  0
  -11.9973   -4.6755    0.0000 O   0  0  0  0  0  0  0  0  0  0  0  0
  -14.2066   -3.4219    0.0000 N   0  0  0  0  0  0  0  0  0  0  0  0
  1  2  1  0
  2  3  2  0
  3  4  1  0
  4  5  2  0
  5  6  1  0
  6  7  1  0
  7  8  2  0
  7  9  1  0
  9 10  1  0
 10 11  2  0
 11 12  1  0
 12 13  2  0
 13 14  1  0
 14 15  1  0
 15 16  2  0
 16 17  1  0
 17 18  2  0
 18 19  1  0
 19 20  1  0
 20 21  2  0
 21 22  1  0
 22 23  2  0
 23 24  1  0
 24 25  2  0
 25 26  1  0
 26 27  2  0
 27 28  1  0
 28 29  2  0
 29 30  1  0
 30 31  1  0
 31 32  2  0
 32 33  1  0
 33 34  2  0
 34 35  1  0
 35 36  2  0
 23 37  1  0
 37 38  2  0
  6 39  1  0
 39 40  2  0
 39 41  1  0
 41  2  1  0
 14 10  1  0
 19 15  1  0
 38 20  1  0
 30 24  1  0
 36 31  1  0
M  END
>  <Title>  (823) 
idABFQgen8

$$$$

     RDKit          2D

 43 49  0  0  0  0  0  0  0  0999 V2000
   -3.3602   11.0854    0.0000 C   0  0  0  0  0  0  0  0  0  0  0  0
   -4.8274   10.7735    0.0000 O   0  0  0  0  0  0  0  0  0  0  0  0
   -5.2909    9.3469    0.0000 C   0  0  0  0  0  0  0  0  0  0  0  0
   -4.2872    8.2322    0.0000 C   0  0  0  0  0  0  0  0  0  0  0  0
   -4.7508    6.8056    0.0000 C   0  0  0  0  0  0  0  0  0  0  0  0
   -6.2180    6.4937    0.0000 C   0  0  0  0  0  0  0  0  0  0  0  0
   -6.6815    5.0672    0.0000 C   0  0  0  0  0  0  0  0  0  0  0  0
   -8.1081    4.6036    0.0000 C   0  0  0  0  0  0  0  0  0  0  0  0
   -8.1081    3.1036    0.0000 N   0  0  0  0  0  0  0  0  0  0  0  0
   -6.6815    2.6401    0.0000 N   0  0  0  0  0  0  0  0  0  0  0  0
   -5.7998    3.8536    0.0000 N   0  0  0  0  0  0  0  0  0  0  0  0
   -4.2998    3.8536    0.0000 C   0  0  0  0  0  0  0  0  0  0  0  0
   -3.4182    2.6401    0.0000 C   0  0  0  0  0  0  0  0  0  0  0  0
   -1.9916    3.1036    0.0000 C   0  0  0  0  0  0  0  0  0  0  0  0
   -1.9916    4.6036    0.0000 C   0  0  0  0  0  0  0  0  0  0  0  0
   -0.7780    5.4853    0.0000 C   0  0  0  0  0  0  0  0  0  0  0  0
   -0.7780    6.9853    0.0000 N   0  0  0  0  0  0  0  0  0  0  0  0
    0.6485    7.4488    0.0000 N   0  0  0  0  0  0  0  0  0  0  0  0
    1.5302    6.2353    0.0000 N   0  0  0  0  0  0  0  0  0  0  0  0
    0.6485    5.0218    0.0000 N   0  0  0  0  0  0  0  0  0  0  0  0
    1.1121    3.5952    0.0000 C   0  0  0  0  0  0  0  0  0  0  0  0
    0.1084    2.4805    0.0000 C   0  0  0  0  0  0  0  0  0  0  0  0
    0.5719    1.0539    0.0000 C   0  0  0  0  0  0  0  0  0  0  0  0
    2.0391    0.7420    0.0000 C   0  0  0  0  0  0  0  0  0  0  0  0
    2.5026   -0.6846    0.0000 C   0  0  0  0  0  0  0  0  0  0  0  0
    3.9699   -0.9964    0.0000 C   0  0  0  0  0  0  0  0  0  0  0  0
    4.4334   -2.4230    0.0000 C   0  0  0  0  0  0  0  0  0  0  0  0
    3.4297   -3.5377    0.0000 C   0  0  0  0  0  0  0  0  0  0  0  0
    1.9625   -3.2259    0.0000 C   0  0  0  0  0  0  0  0  0  0  0  0
    1.4989   -1.7993    0.0000 C   0  0  0  0  0  0  0  0  0  0  0  0
    3.0428    1.8568    0.0000 C   0  0  0  0  0  0  0  0  0  0  0  0
    2.5793    3.2833    0.0000 C   0  0  0  0  0  0  0  0  0  0  0  0
    3.5830    4.3981    0.0000 C   0  0  0  0  0  0  0  0  0  0  0  0
    5.0502    4.0862    0.0000 C   0  0  0  0  0  0  0  0  0  0  0  0
    6.0539    5.2009    0.0000 C   0  0  0  0  0  0  0  0  0  0  0  0
    5.5904    6.6275    0.0000 C   0  0  0  0  0  0  0  0  0  0  0  0
    4.1232    6.9394    0.0000 C   0  0  0  0  0  0  0  0  0  0  0  0
    3.1195    5.8246    0.0000 C   0  0  0  0  0  0  0  0  0  0  0  0
   -3.4182    5.0672    0.0000 C   0  0  0  0  0  0  0  0  0  0  0  0
   -3.8817    6.4937    0.0000 O   0  0  0  0  0  0  0  0  0  0  0  0
   -7.2217    7.6085    0.0000 C   0  0  0  0  0  0  0  0  0  0  0  0
   -8.6889    7.2966    0.0000 O   0  0  0  0  0  0  0  0  0  0  0  0
   -6.7582    9.0350    0.0000 N   0  0  0  0  0  0  0  0  0  0  0  0
  1  2  1  0
  2  3  1  0
  3  4  2  0
  4  5  1  0
  5  6  2  0
  6  7  1  0
  7  8  2  0
  8  9  1  0
  9 10  2  0
 10 11  1  0
 11 12  1  0
 12 13  2  0
 13 14  1  0
 14 15  2  0
 15 16  1  0
 16 17  2  0
 17 18  1  0
 18 19  2  0
 19 20  1  0
 20 21  1  0
 21 22  2  0
 22 23  1  0
 23 24  2  0
 24 25  1  0
 25 26  2  0
 26 27  1  0
 27 28  2  0
 28 29  1  0
 29 30  2  0
 24 31  1  0
 31 32  2  0
 32 33  1  0
 33 34  2  0
 34 35  1  0
 35 36  2  0
 36 37  1  0
 37 38  2  0
 15 39  1  0
 39 40  2  0
  6 41  1  0
 41 42  2  0
 41 43  1  0
 43  3  1  0
 11  7  1  0
 39 12  1  0
 20 16  1  0
 32 21  1  0
 38 33  1  0
 30 25  1  0
M  END
>  <Title>  (824) 
idABFRgen8

$$$$

     RDKit          2D

 12 12  0  0  0  0  0  0  0  0999 V2000
    4.2098   -1.2990    0.0000 C   0  0  0  0  0  0  0  0  0  0  0  0
    3.4598   -0.0000    0.0000 O   0  0  0  0  0  0  0  0  0  0  0  0
    1.9598    0.0000    0.0000 C   0  0  0  0  0  0  0  0  0  0  0  0
    1.3858   -1.3858    0.0000 C   0  0  0  0  0  0  0  0  0  0  0  0
   -0.0000   -1.9598    0.0000 C   0  0  0  0  0  0  0  0  0  0  0  0
   -1.3858   -1.3858    0.0000 C   0  0  0  0  0  0  0  0  0  0  0  0
   -1.9598    0.0000    0.0000 C   0  0  0  0  0  0  0  0  0  0  0  0
   -1.3858    1.3858    0.0000 C   0  0  0  0  0  0  0  0  0  0  0  0
   -2.4465    2.4465    0.0000 N   0  0  0  0  0  0  0  0  0  0  0  0
    0.0000    1.9598    0.0000 N   0  0  0  0  0  0  0  0  0  0  0  0
    1.3858    1.3858    0.0000 C   0  0  0  0  0  0  0  0  0  0  0  0
    2.4465    2.4465    0.0000 C   0  0  0  0  0  0  0  0  0  0  0  0
  1  2  1  0
  2  3  1  0
  3  4  2  0
  4  5  1  0
  5  6  2  0
  6  7  1  0
  7  8  2  0
  8  9  1  0
  8 10  1  0
 10 11  2  0
 11 12  1  0
 11  3  1  0
M  END
>  <Title>  (825) 
idABFSgen8

$$$$

     RDKit          2D

 24 24  0  0  0  0  0  0  0  0999 V2000
    7.0080   -0.0000    0.0000 C   0  0  0  0  0  0  0  0  0  0  0  0
    5.5080    0.0000    0.0000 C   0  0  0  0  0  0  0  0  0  0  0  0
    5.3037    1.4860    0.0000 C   0  0  0  0  0  0  0  0  0  0  0  0
    4.7061    2.8618    0.0000 C   0  0  0  0  0  0  0  0  0  0  0  0
    3.7595    4.0254    0.0000 C   0  0  0  0  0  0  0  0  0  0  0  0
    2.5340    4.8904    0.0000 C   0  0  0  0  0  0  0  0  0  0  0  0
    1.1206    5.3928    0.0000 C   0  0  0  0  0  0  0  0  0  0  0  0
   -0.3759    5.4951    0.0000 C   0  0  0  0  0  0  0  0  0  0  0  0
   -1.8445    5.1899    0.0000 C   0  0  0  0  0  0  0  0  0  0  0  0
   -3.1763    4.4998    0.0000 C   0  0  0  0  0  0  0  0  0  0  0  0
   -4.2726    3.4760    0.0000 C   0  0  0  0  0  0  0  0  0  0  0  0
   -5.0520    2.1944    0.0000 C   0  0  0  0  0  0  0  0  0  0  0  0
   -5.4567    0.7500    0.0000 C   0  0  0  0  0  0  0  0  0  0  0  0
   -5.4567   -0.7500    0.0000 C   0  0  0  0  0  0  0  0  0  0  0  0
   -5.0520   -2.1944    0.0000 C   0  0  0  0  0  0  0  0  0  0  0  0
   -4.2726   -3.4760    0.0000 C   0  0  0  0  0  0  0  0  0  0  0  0
   -3.1763   -4.4998    0.0000 C   0  0  0  0  0  0  0  0  0  0  0  0
   -1.8445   -5.1899    0.0000 C   0  0  0  0  0  0  0  0  0  0  0  0
   -0.3759   -5.4951    0.0000 C   0  0  0  0  0  0  0  0  0  0  0  0
    1.1206   -5.3928    0.0000 C   0  0  0  0  0  0  0  0  0  0  0  0
    2.5340   -4.8904    0.0000 C   0  0  0  0  0  0  0  0  0  0  0  0
    3.7595   -4.0254    0.0000 C   0  0  0  0  0  0  0  0  0  0  0  0
    4.7061   -2.8618    0.0000 C   0  0  0  0  0  0  0  0  0  0  0  0
    5.3037   -1.4860    0.0000 C   0  0  0  0  0  0  0  0  0  0  0  0
  1  2  1  0
  2  3  2  0
  3  4  1  0
  4  5  2  0
  5  6  1  0
  6  7  2  0
  7  8  1  0
  8  9  2  0
  9 10  1  0
 10 11  2  0
 11 12  1  0
 12 13  2  0
 13 14  1  0
 14 15  2  0
 15 16  1  0
 16 17  2  0
 17 18  1  0
 18 19  2  0
 19 20  1  0
 20 21  2  0
 21 22  1  0
 22 23  2  0
 23 24  1  0
 24  2  1  0
M  END
>  <Title>  (826) 
idABFTgen8

$$$$

     RDKit          2D

 28 28  0  0  0  0  0  0  0  0999 V2000
   21.4598  -10.3923    0.0000 C   0  0  0  0  0  0  0  0  0  0  0  0
   19.9598  -10.3923    0.0000 O   0  0  0  0  0  0  0  0  0  0  0  0
   19.2098   -9.0933    0.0000 N   0  0  0  0  0  0  0  0  0  0  0  0
   17.7098   -9.0933    0.0000 C   0  0  0  0  0  0  0  0  0  0  0  0
   16.9598   -7.7942    0.0000 C   0  0  0  0  0  0  0  0  0  0  0  0
   15.4598   -7.7942    0.0000 C   0  0  0  0  0  0  0  0  0  0  0  0
   14.7098   -6.4952    0.0000 C   0  0  0  0  0  0  0  0  0  0  0  0
   13.2098   -6.4952    0.0000 C   0  0  0  0  0  0  0  0  0  0  0  0
   12.4598   -5.1962    0.0000 C   0  0  0  0  0  0  0  0  0  0  0  0
   10.9598   -5.1962    0.0000 C   0  0  0  0  0  0  0  0  0  0  0  0
   10.2098   -3.8971    0.0000 C   0  0  0  0  0  0  0  0  0  0  0  0
    8.7098   -3.8971    0.0000 C   0  0  0  0  0  0  0  0  0  0  0  0
    7.9598   -2.5981    0.0000 C   0  0  0  0  0  0  0  0  0  0  0  0
    6.4598   -2.5981    0.0000 C   0  0  0  0  0  0  0  0  0  0  0  0
    5.7098   -1.2990    0.0000 C   0  0  0  0  0  0  0  0  0  0  0  0
    4.2098   -1.2990    0.0000 C   0  0  0  0  0  0  0  0  0  0  0  0
    3.4598   -0.0000    0.0000 C   0  0  0  0  0  0  0  0  0  0  0  0
    1.9598    0.0000    0.0000 C   0  0  0  0  0  0  0  0  0  0  0  0
    1.3858   -1.3858    0.0000 N   0  0  0  0  0  0  0  0  0  0  0  0
   -0.0000   -1.9598    0.0000 C   0  0  0  0  0  0  0  0  0  0  0  0
   -1.3858   -1.3858    0.0000 C   0  0  0  0  0  0  0  0  0  0  0  0
   -2.4465   -2.4465    0.0000 O   0  0  0  0  0  0  0  0  0  0  0  0
   -1.9598    0.0000    0.0000 C   0  0  0  0  0  0  0  0  0  0  0  0
   -3.4598    0.0000    0.0000 O   0  0  0  0  0  0  0  0  0  0  0  0
   -1.3858    1.3858    0.0000 C   0  0  0  0  0  0  0  0  0  0  0  0
   -2.4465    2.4465    0.0000 O   0  0  0  0  0  0  0  0  0  0  0  0
    0.0000    1.9598    0.0000 C   0  0  0  0  0  0  0  0  0  0  0  0
    1.3858    1.3858    0.0000 N   0  0  0  0  0  0  0  0  0  0  0  0
  1  2  1  0
  2  3  1  0
  3  4  2  3
  4  5  1  0
  5  6  2  3
  6  7  1  0
  7  8  2  3
  8  9  1  0
  9 10  2  3
 10 11  1  0
 11 12  2  3
 12 13  1  0
 13 14  2  3
 14 15  1  0
 15 16  2  3
 16 17  1  0
 17 18  2  3
 18 19  1  0
 19 20  1  0
 20 21  1  0
 21 22  1  0
 21 23  1  0
 23 24  1  0
 23 25  1  0
 25 26  1  0
 25 27  1  0
 27 28  1  0
 28 18  1  0
M  END
>  <Title>  (827) 
idABFUgen8

$$$$

     RDKit          2D

 33 37  0  0  0  0  0  0  0  0999 V2000
    3.0000    0.0000    0.0000 C   0  0  0  0  0  0  0  0  0  0  0  0
    1.5000    0.0000    0.0000 C   0  0  0  0  0  0  0  0  0  0  0  0
    0.7500   -1.2990    0.0000 C   0  0  0  0  0  0  0  0  0  0  0  0
   -0.7500   -1.2990    0.0000 C   0  0  0  0  0  0  0  0  0  0  0  0
   -1.5000    0.0000    0.0000 C   0  0  0  0  0  0  0  0  0  0  0  0
   -3.0000    0.0000    0.0000 C   0  0  0  0  0  0  0  0  0  0  0  0
   -3.8817   -1.2135    0.0000 N   0  0  0  0  0  0  0  0  0  0  0  0
   -5.3083   -0.7500    0.0000 N   0  0  0  0  0  0  0  0  0  0  0  0
   -5.3083    0.7500    0.0000 N   0  0  0  0  0  0  0  0  0  0  0  0
   -3.8817    1.2135    0.0000 N   0  0  0  0  0  0  0  0  0  0  0  0
   -3.4182    2.6401    0.0000 C   0  0  0  0  0  0  0  0  0  0  0  0
   -1.9509    2.9520    0.0000 C   0  0  0  0  0  0  0  0  0  0  0  0
   -1.4874    4.3786    0.0000 C   0  0  0  0  0  0  0  0  0  0  0  0
   -2.4911    5.4933    0.0000 C   0  0  0  0  0  0  0  0  0  0  0  0
   -2.0276    6.9199    0.0000 C   0  0  0  0  0  0  0  0  0  0  0  0
   -2.9093    8.1334    0.0000 N   0  0  0  0  0  0  0  0  0  0  0  0
   -2.0276    9.3469    0.0000 N   0  0  0  0  0  0  0  0  0  0  0  0
   -0.6010    8.8834    0.0000 N   0  0  0  0  0  0  0  0  0  0  0  0
   -0.6010    7.3834    0.0000 N   0  0  0  0  0  0  0  0  0  0  0  0
    0.6125    6.5017    0.0000 C   0  0  0  0  0  0  0  0  0  0  0  0
    0.4557    5.0099    0.0000 C   0  0  0  0  0  0  0  0  0  0  0  0
    1.6693    4.1283    0.0000 C   0  0  0  0  0  0  0  0  0  0  0  0
    3.0396    4.7384    0.0000 C   0  0  0  0  0  0  0  0  0  0  0  0
    4.2531    3.8567    0.0000 C   0  0  0  0  0  0  0  0  0  0  0  0
    5.6234    4.4668    0.0000 O   0  0  0  0  0  0  0  0  0  0  0  0
    4.0963    2.3649    0.0000 N   0  0  0  0  0  0  0  0  0  0  0  0
    5.3098    1.4832    0.0000 O   0  0  0  0  0  0  0  0  0  0  0  0
    3.1964    6.2301    0.0000 C   0  0  0  0  0  0  0  0  0  0  0  0
    1.9829    7.1118    0.0000 C   0  0  0  0  0  0  0  0  0  0  0  0
   -3.9583    5.1814    0.0000 C   0  0  0  0  0  0  0  0  0  0  0  0
   -4.4218    3.7548    0.0000 C   0  0  0  0  0  0  0  0  0  0  0  0
   -0.7500    1.2990    0.0000 C   0  0  0  0  0  0  0  0  0  0  0  0
    0.7500    1.2990    0.0000 C   0  0  0  0  0  0  0  0  0  0  0  0
  1  2  1  0
  2  3  2  0
  3  4  1  0
  4  5  2  0
  5  6  1  0
  6  7  2  0
  7  8  1  0
  8  9  2  0
  9 10  1  0
 10 11  1  0
 11 12  2  0
 12 13  1  0
 13 14  2  0
 14 15  1  0
 15 16  2  0
 16 17  1  0
 17 18  2  0
 18 19  1  0
 19 20  1  0
 20 21  2  0
 21 22  1  0
 22 23  2  0
 23 24  1  0
 24 25  2  0
 24 26  1  0
 26 27  1  0
 23 28  1  0
 28 29  1  0
 14 30  1  0
 30 31  2  0
  5 32  1  0
 32 33  2  0
 33  2  1  0
 10  6  1  0
 31 11  1  0
 19 15  1  0
 29 20  1  0
M  END
>  <Title>  (828) 
idABFVgen8

$$$$

     RDKit          2D

 32 36  0  0  0  0  0  0  0  0999 V2000
    7.0066    1.7040    0.0000 C   0  0  0  0  0  0  0  0  0  0  0  0
    6.0029    0.5893    0.0000 C   0  0  0  0  0  0  0  0  0  0  0  0
    6.4664   -0.8373    0.0000 C   0  0  0  0  0  0  0  0  0  0  0  0
    5.4627   -1.9520    0.0000 C   0  0  0  0  0  0  0  0  0  0  0  0
    3.9955   -1.6402    0.0000 C   0  0  0  0  0  0  0  0  0  0  0  0
    2.9918   -2.7549    0.0000 C   0  0  0  0  0  0  0  0  0  0  0  0
    3.3037   -4.2221    0.0000 N   0  0  0  0  0  0  0  0  0  0  0  0
    2.0046   -4.9721    0.0000 N   0  0  0  0  0  0  0  0  0  0  0  0
    0.8899   -3.9684    0.0000 N   0  0  0  0  0  0  0  0  0  0  0  0
    1.5000   -2.5981    0.0000 N   0  0  0  0  0  0  0  0  0  0  0  0
    0.7500   -1.2990    0.0000 C   0  0  0  0  0  0  0  0  0  0  0  0
    1.5000    0.0000    0.0000 C   0  0  0  0  0  0  0  0  0  0  0  0
    0.7500    1.2990    0.0000 C   0  0  0  0  0  0  0  0  0  0  0  0
   -0.7500    1.2990    0.0000 C   0  0  0  0  0  0  0  0  0  0  0  0
   -2.2500    1.2990    0.0000 C   0  0  0  0  0  0  0  0  0  0  0  0
   -3.0000   -0.0000    0.0000 C   0  0  0  0  0  0  0  0  0  0  0  0
   -4.5000   -0.0000    0.0000 C   0  0  0  0  0  0  0  0  0  0  0  0
   -5.2500   -1.2990    0.0000 O   0  0  0  0  0  0  0  0  0  0  0  0
   -5.2500    1.2990    0.0000 N   0  0  0  0  0  0  0  0  0  0  0  0
   -6.7500    1.2990    0.0000 C   0  0  0  0  0  0  0  0  0  0  0  0
   -7.5000    2.5981    0.0000 C   0  0  0  0  0  0  0  0  0  0  0  0
   -9.0000    2.5981    0.0000 C   0  0  0  0  0  0  0  0  0  0  0  0
   -9.7500    1.2990    0.0000 C   0  0  0  0  0  0  0  0  0  0  0  0
   -9.0000   -0.0000    0.0000 C   0  0  0  0  0  0  0  0  0  0  0  0
   -7.5000   -0.0000    0.0000 C   0  0  0  0  0  0  0  0  0  0  0  0
   -2.2500   -1.2990    0.0000 C   0  0  0  0  0  0  0  0  0  0  0  0
   -0.7500   -1.2990    0.0000 C   0  0  0  0  0  0  0  0  0  0  0  0
   -1.5000    0.0000    0.0000 C   0  0  0  0  0  0  0  0  0  0  0  0
   -2.2735   -0.1929    0.0000 O   0  0  0  0  0  0  0  0  0  0  0  0
    3.5320   -0.2136    0.0000 C   0  0  0  0  0  0  0  0  0  0  0  0
    2.1838    0.4441    0.0000 O   0  0  0  0  0  0  0  0  0  0  0  0
    4.5356    0.9012    0.0000 N   0  0  0  0  0  0  0  0  0  0  0  0
  1  2  1  0
  2  3  2  0
  3  4  1  0
  4  5  2  0
  5  6  1  0
  6  7  2  0
  7  8  1  0
  8  9  2  0
  9 10  1  0
 10 11  1  0
 11 12  2  0
 12 13  1  0
 13 14  2  0
 14 15  1  0
 15 16  2  0
 16 17  1  0
 17 18  2  0
 17 19  1  0
 19 20  1  0
 20 21  2  0
 21 22  1  0
 22 23  2  0
 23 24  1  0
 24 25  2  0
 16 26  1  0
 26 27  2  0
 27 28  1  0
 28 29  2  0
  5 30  1  0
 30 31  2  0
 30 32  1  0
 32  2  1  0
 10  6  1  0
 27 11  1  0
 28 14  1  0
 25 20  1  0
M  END
>  <Title>  (829) 
idABFWgen8

$$$$

     RDKit          2D

 61 69  0  0  0  0  0  0  0  0999 V2000
   12.3419   10.0011    0.0000 C   0  0  0  0  0  0  0  0  0  0  0  0
   11.7730    8.6132    0.0000 O   0  0  0  0  0  0  0  0  0  0  0  0
   10.2866    8.4118    0.0000 C   0  0  0  0  0  0  0  0  0  0  0  0
    9.8231    6.9853    0.0000 C   0  0  0  0  0  0  0  0  0  0  0  0
    8.4187    6.4582    0.0000 C   0  0  0  0  0  0  0  0  0  0  0  0
    7.1311    7.2275    0.0000 C   0  0  0  0  0  0  0  0  0  0  0  0
    5.8792    6.4012    0.0000 N   0  0  0  0  0  0  0  0  0  0  0  0
    4.5915    7.1705    0.0000 N   0  0  0  0  0  0  0  0  0  0  0  0
    3.1872    6.6435    0.0000 N   0  0  0  0  0  0  0  0  0  0  0  0
    2.7237    5.2169    0.0000 N   0  0  0  0  0  0  0  0  0  0  0  0
    3.5500    3.9650    0.0000 N   0  0  0  0  0  0  0  0  0  0  0  0
    5.0440    3.8306    0.0000 N   0  0  0  0  0  0  0  0  0  0  0  0
    6.0806    4.9148    0.0000 C   0  0  0  0  0  0  0  0  0  0  0  0
    7.5071    4.4512    0.0000 N   0  0  0  0  0  0  0  0  0  0  0  0
    8.6219    5.4549    0.0000 N   0  0  0  0  0  0  0  0  0  0  0  0
   10.0484    4.9914    0.0000 N   0  0  0  0  0  0  0  0  0  0  0  0
   10.3603    3.5242    0.0000 N   0  0  0  0  0  0  0  0  0  0  0  0
    9.2456    2.5205    0.0000 N   0  0  0  0  0  0  0  0  0  0  0  0
    7.8190    2.9840    0.0000 N   0  0  0  0  0  0  0  0  0  0  0  0
    6.7043    1.9803    0.0000 C   0  0  0  0  0  0  0  0  0  0  0  0
    5.2371    2.2922    0.0000 C   0  0  0  0  0  0  0  0  0  0  0  0
    4.4871    0.9932    0.0000 C   0  0  0  0  0  0  0  0  0  0  0  0
    5.4908   -0.1216    0.0000 C   0  0  0  0  0  0  0  0  0  0  0  0
    5.1789   -1.5888    0.0000 C   0  0  0  0  0  0  0  0  0  0  0  0
    6.1826   -2.7035    0.0000 N   0  0  0  0  0  0  0  0  0  0  0  0
    5.4326   -4.0025    0.0000 N   0  0  0  0  0  0  0  0  0  0  0  0
    3.9654   -3.6907    0.0000 N   0  0  0  0  0  0  0  0  0  0  0  0
    3.8086   -2.1989    0.0000 N   0  0  0  0  0  0  0  0  0  0  0  0
    2.5095   -1.4489    0.0000 C   0  0  0  0  0  0  0  0  0  0  0  0
    2.8978    0.0000    0.0000 C   0  0  0  0  0  0  0  0  0  0  0  0
    2.5095    1.4489    0.0000 C   0  0  0  0  0  0  0  0  0  0  0  0
    1.4489    2.5095    0.0000 C   0  0  0  0  0  0  0  0  0  0  0  0
    0.0000    2.8978    0.0000 C   0  0  0  0  0  0  0  0  0  0  0  0
   -1.4489    2.5095    0.0000 C   0  0  0  0  0  0  0  0  0  0  0  0
   -2.1989    3.8086    0.0000 C   0  0  0  0  0  0  0  0  0  0  0  0
   -1.4489    5.1076    0.0000 C   0  0  0  0  0  0  0  0  0  0  0  0
   -2.1989    6.4067    0.0000 C   0  0  0  0  0  0  0  0  0  0  0  0
   -3.6989    6.4067    0.0000 C   0  0  0  0  0  0  0  0  0  0  0  0
   -4.4489    5.1076    0.0000 C   0  0  0  0  0  0  0  0  0  0  0  0
   -3.6989    3.8086    0.0000 C   0  0  0  0  0  0  0  0  0  0  0  0
   -4.4489    2.5095    0.0000 C   0  0  0  0  0  0  0  0  0  0  0  0
   -5.9489    2.5095    0.0000 C   0  0  0  0  0  0  0  0  0  0  0  0
   -6.6989    1.2105    0.0000 C   0  0  0  0  0  0  0  0  0  0  0  0
   -5.9489   -0.0885    0.0000 C   0  0  0  0  0  0  0  0  0  0  0  0
   -4.4489   -0.0885    0.0000 C   0  0  0  0  0  0  0  0  0  0  0  0
   -3.6989    1.2105    0.0000 C   0  0  0  0  0  0  0  0  0  0  0  0
   -2.5095    1.4489    0.0000 C   0  0  0  0  0  0  0  0  0  0  0  0
   -1.0607    1.0607    0.0000 N   0  0  0  0  0  0  0  0  0  0  0  0
    0.3882    1.4489    0.0000 C   0  0  0  0  0  0  0  0  0  0  0  0
    1.1382    0.1499    0.0000 O   0  0  0  0  0  0  0  0  0  0  0  0
   -2.8978    0.0000    0.0000 C   0  0  0  0  0  0  0  0  0  0  0  0
   -2.5095   -1.4489    0.0000 C   0  0  0  0  0  0  0  0  0  0  0  0
   -1.4489   -2.5095    0.0000 C   0  0  0  0  0  0  0  0  0  0  0  0
   -0.0000   -2.8978    0.0000 C   0  0  0  0  0  0  0  0  0  0  0  0
    1.4489   -2.5095    0.0000 C   0  0  0  0  0  0  0  0  0  0  0  0
    6.8611    0.4885    0.0000 C   0  0  0  0  0  0  0  0  0  0  0  0
    8.1601   -0.2615    0.0000 O   0  0  0  0  0  0  0  0  0  0  0  0
    6.9297    8.7140    0.0000 N   0  0  0  0  0  0  0  0  0  0  0  0
    7.9663    9.7982    0.0000 C   0  0  0  0  0  0  0  0  0  0  0  0
    9.4603    9.6637    0.0000 C   0  0  0  0  0  0  0  0  0  0  0  0
   10.2296   10.9514    0.0000 C   0  0  0  0  0  0  0  0  0  0  0  0
  1  2  1  0
  2  3  1  0
  3  4  2  0
  4  5  1  0
  5  6  2  0
  6  7  1  0
  7  8  1  0
  8  9  2  0
  9 10  1  0
 10 11  2  0
 11 12  1  0
 12 13  2  0
 13 14  1  0
 14 15  1  0
 15 16  2  0
 16 17  1  0
 17 18  2  0
 18 19  1  0
 19 20  1  0
 20 21  2  0
 21 22  1  0
 22 23  2  0
 23 24  1  0
 24 25  2  0
 25 26  1  0
 26 27  2  0
 27 28  1  0
 28 29  1  0
 29 30  2  0
 30 31  1  0
 31 32  2  0
 32 33  1  0
 33 34  2  0
 34 35  1  0
 35 36  2  0
 36 37  1  0
 37 38  2  0
 38 39  1  0
 39 40  2  0
 40 41  1  0
 41 42  2  0
 42 43  1  0
 43 44  2  0
 44 45  1  0
 45 46  2  0
 34 47  1  0
 47 48  1  0
 48 49  1  0
 49 50  2  0
 47 51  2  0
 51 52  1  0
 52 53  2  0
 53 54  1  0
 54 55  2  0
 23 56  1  0
 56 57  2  0
  6 58  1  0
 58 59  1  0
 59 60  2  0
 60 61  1  0
 60  3  1  0
 13  7  1  0
 19 14  1  0
 56 20  1  0
 28 24  1  0
 55 29  1  0
 49 32  1  0
 40 35  1  0
 46 41  1  0
M  END
>  <Title>  (830) 
idABFXgen8

$$$$

     RDKit          2D

 39 44  0  0  0  0  0  0  0  0999 V2000
    3.0000    0.0000    0.0000 C   0  0  0  0  0  0  0  0  0  0  0  0
    1.5000    0.0000    0.0000 C   0  0  0  0  0  0  0  0  0  0  0  0
    0.7500   -1.2990    0.0000 C   0  0  0  0  0  0  0  0  0  0  0  0
   -0.7500   -1.2990    0.0000 C   0  0  0  0  0  0  0  0  0  0  0  0
   -1.5000    0.0000    0.0000 C   0  0  0  0  0  0  0  0  0  0  0  0
   -3.0000    0.0000    0.0000 C   0  0  0  0  0  0  0  0  0  0  0  0
   -3.8817   -1.2135    0.0000 N   0  0  0  0  0  0  0  0  0  0  0  0
   -5.3083   -0.7500    0.0000 N   0  0  0  0  0  0  0  0  0  0  0  0
   -5.3083    0.7500    0.0000 N   0  0  0  0  0  0  0  0  0  0  0  0
   -3.8817    1.2135    0.0000 N   0  0  0  0  0  0  0  0  0  0  0  0
   -3.4182    2.6401    0.0000 C   0  0  0  0  0  0  0  0  0  0  0  0
   -1.9509    2.9520    0.0000 C   0  0  0  0  0  0  0  0  0  0  0  0
   -1.4874    4.3786    0.0000 C   0  0  0  0  0  0  0  0  0  0  0  0
   -2.4911    5.4933    0.0000 C   0  0  0  0  0  0  0  0  0  0  0  0
   -3.9583    5.1814    0.0000 C   0  0  0  0  0  0  0  0  0  0  0  0
   -4.4218    3.7548    0.0000 C   0  0  0  0  0  0  0  0  0  0  0  0
   -5.8891    3.4430    0.0000 C   0  0  0  0  0  0  0  0  0  0  0  0
   -6.8928    4.5577    0.0000 C   0  0  0  0  0  0  0  0  0  0  0  0
   -8.3600    4.2458    0.0000 C   0  0  0  0  0  0  0  0  0  0  0  0
   -8.8235    2.8192    0.0000 C   0  0  0  0  0  0  0  0  0  0  0  0
  -10.2907    2.5074    0.0000 C   0  0  0  0  0  0  0  0  0  0  0  0
  -10.7543    1.0808    0.0000 O   0  0  0  0  0  0  0  0  0  0  0  0
  -11.2944    3.6221    0.0000 N   0  0  0  0  0  0  0  0  0  0  0  0
  -12.7617    3.3102    0.0000 C   0  0  0  0  0  0  0  0  0  0  0  0
  -13.7653    4.4249    0.0000 C   0  0  0  0  0  0  0  0  0  0  0  0
  -15.2326    4.1131    0.0000 C   0  0  0  0  0  0  0  0  0  0  0  0
  -15.6961    2.6865    0.0000 C   0  0  0  0  0  0  0  0  0  0  0  0
  -17.1633    2.3746    0.0000 C   0  0  0  0  0  0  0  0  0  0  0  0
  -18.1670    3.4893    0.0000 C   0  0  0  0  0  0  0  0  0  0  0  0
  -19.6342    3.1775    0.0000 C   0  0  0  0  0  0  0  0  0  0  0  0
  -20.0978    1.7509    0.0000 C   0  0  0  0  0  0  0  0  0  0  0  0
  -19.0941    0.6362    0.0000 C   0  0  0  0  0  0  0  0  0  0  0  0
  -17.6268    0.9480    0.0000 C   0  0  0  0  0  0  0  0  0  0  0  0
  -14.6924    1.5718    0.0000 C   0  0  0  0  0  0  0  0  0  0  0  0
  -13.2252    1.8836    0.0000 C   0  0  0  0  0  0  0  0  0  0  0  0
   -7.8198    1.7045    0.0000 C   0  0  0  0  0  0  0  0  0  0  0  0
   -6.3526    2.0164    0.0000 C   0  0  0  0  0  0  0  0  0  0  0  0
   -0.7500    1.2990    0.0000 C   0  0  0  0  0  0  0  0  0  0  0  0
    0.7500    1.2990    0.0000 N   0  0  0  0  0  0  0  0  0  0  0  0
  1  2  1  0
  2  3  2  0
  3  4  1  0
  4  5  2  0
  5  6  1  0
  6  7  2  0
  7  8  1  0
  8  9  2  0
  9 10  1  0
 10 11  1  0
 11 12  1  0
 12 13  1  0
 13 14  1  0
 14 15  1  0
 15 16  1  0
 16 17  1  0
 17 18  2  0
 18 19  1  0
 19 20  2  0
 20 21  1  0
 21 22  2  0
 21 23  1  0
 23 24  1  0
 24 25  2  0
 25 26  1  0
 26 27  2  0
 27 28  1  0
 28 29  2  0
 29 30  1  0
 30 31  2  0
 31 32  1  0
 32 33  2  0
 27 34  1  0
 34 35  2  0
 20 36  1  0
 36 37  2  0
  5 38  1  0
 38 39  1  0
 39  2  1  0
 10  6  1  0
 16 11  1  0
 37 17  1  0
 35 24  1  0
 33 28  1  0
M  END
>  <Title>  (831) 
idABFYgen8

$$$$

     RDKit          2D

 13 13  0  0  0  0  0  0  0  0999 V2000
    4.1621    0.0000    0.0000 C   0  0  0  0  0  0  0  0  0  0  0  0
    2.6621    0.0000    0.0000 C   0  0  0  0  0  0  0  0  0  0  0  0
    2.2395    1.4392    0.0000 C   0  0  0  0  0  0  0  0  0  0  0  0
    1.1059    2.4215    0.0000 C   0  0  0  0  0  0  0  0  0  0  0  0
   -0.3789    2.6350    0.0000 C   0  0  0  0  0  0  0  0  0  0  0  0
   -1.7433    2.0119    0.0000 C   0  0  0  0  0  0  0  0  0  0  0  0
   -2.5543    0.7500    0.0000 C   0  0  0  0  0  0  0  0  0  0  0  0
   -2.5543   -0.7500    0.0000 C   0  0  0  0  0  0  0  0  0  0  0  0
   -1.7433   -2.0119    0.0000 C   0  0  0  0  0  0  0  0  0  0  0  0
   -2.7256   -3.1455    0.0000 C   0  0  0  0  0  0  0  0  0  0  0  0
   -0.3789   -2.6350    0.0000 C   0  0  0  0  0  0  0  0  0  0  0  0
    1.1059   -2.4215    0.0000 C   0  0  0  0  0  0  0  0  0  0  0  0
    2.2395   -1.4392    0.0000 C   0  0  0  0  0  0  0  0  0  0  0  0
  1  2  1  0
  2  3  2  0
  3  4  1  0
  4  5  2  0
  5  6  1  0
  6  7  2  0
  7  8  1  0
  8  9  2  0
  9 10  1  0
  9 11  1  0
 11 12  1  0
 12 13  2  0
 13  2  1  0
M  END
>  <Title>  (832) 
idABFZgen8

$$$$

     RDKit          2D

 14 14  0  0  0  0  0  0  0  0999 V2000
    4.3978    0.0000    0.0000 C   0  0  0  0  0  0  0  0  0  0  0  0
    2.8978    0.0000    0.0000 C   0  0  0  0  0  0  0  0  0  0  0  0
    2.5095   -1.4489    0.0000 C   0  0  0  0  0  0  0  0  0  0  0  0
    1.4489   -2.5095    0.0000 C   0  0  0  0  0  0  0  0  0  0  0  0
   -0.0000   -2.8978    0.0000 C   0  0  0  0  0  0  0  0  0  0  0  0
   -1.4489   -2.5095    0.0000 C   0  0  0  0  0  0  0  0  0  0  0  0
   -2.5095   -1.4489    0.0000 C   0  0  0  0  0  0  0  0  0  0  0  0
   -2.8978    0.0000    0.0000 C   0  0  0  0  0  0  0  0  0  0  0  0
   -2.5095    1.4489    0.0000 C   0  0  0  0  0  0  0  0  0  0  0  0
   -1.4489    2.5095    0.0000 C   0  0  0  0  0  0  0  0  0  0  0  0
    0.0000    2.8978    0.0000 C   0  0  0  0  0  0  0  0  0  0  0  0
    1.4489    2.5095    0.0000 C   0  0  0  0  0  0  0  0  0  0  0  0
    2.5095    1.4489    0.0000 C   0  0  0  0  0  0  0  0  0  0  0  0
    3.8086    2.1989    0.0000 F   0  0  0  0  0  0  0  0  0  0  0  0
  1  2  1  0
  2  3  2  0
  3  4  1  0
  4  5  2  0
  5  6  1  0
  6  7  2  0
  7  8  1  0
  8  9  2  0
  9 10  1  0
 10 11  2  0
 11 12  1  0
 12 13  2  0
 13 14  1  0
 13  2  1  0
M  END
>  <Title>  (833) 
idABGAgen8

$$$$

     RDKit          2D

 43 43  0  0  0  0  0  0  0  0999 V2000
   11.5361    0.0000    0.0000 C   0  0  0  0  0  0  0  0  0  0  0  0
   10.0361    0.0000    0.0000 C   0  0  0  0  0  0  0  0  0  0  0  0
    9.9240   -1.4958    0.0000 C   0  0  0  0  0  0  0  0  0  0  0  0
    9.5902   -2.9582    0.0000 C   0  0  0  0  0  0  0  0  0  0  0  0
    9.0422   -4.3545    0.0000 C   0  0  0  0  0  0  0  0  0  0  0  0
    8.2922   -5.6535    0.0000 C   0  0  0  0  0  0  0  0  0  0  0  0
    7.3570   -6.8263    0.0000 C   0  0  0  0  0  0  0  0  0  0  0  0
    6.2574   -7.8466    0.0000 C   0  0  0  0  0  0  0  0  0  0  0  0
    5.0181   -8.6915    0.0000 C   0  0  0  0  0  0  0  0  0  0  0  0
    3.6666   -9.3424    0.0000 C   0  0  0  0  0  0  0  0  0  0  0  0
    2.2332   -9.7845    0.0000 C   0  0  0  0  0  0  0  0  0  0  0  0
    0.7500  -10.0081    0.0000 C   0  0  0  0  0  0  0  0  0  0  0  0
   -0.7500  -10.0081    0.0000 C   0  0  0  0  0  0  0  0  0  0  0  0
   -2.2332   -9.7845    0.0000 C   0  0  0  0  0  0  0  0  0  0  0  0
   -3.6666   -9.3424    0.0000 C   0  0  0  0  0  0  0  0  0  0  0  0
   -5.0181   -8.6915    0.0000 C   0  0  0  0  0  0  0  0  0  0  0  0
   -6.2574   -7.8466    0.0000 C   0  0  0  0  0  0  0  0  0  0  0  0
   -7.3570   -6.8263    0.0000 C   0  0  0  0  0  0  0  0  0  0  0  0
   -8.2922   -5.6535    0.0000 C   0  0  0  0  0  0  0  0  0  0  0  0
   -9.0422   -4.3545    0.0000 C   0  0  0  0  0  0  0  0  0  0  0  0
   -9.5902   -2.9582    0.0000 C   0  0  0  0  0  0  0  0  0  0  0  0
   -9.9240   -1.4958    0.0000 C   0  0  0  0  0  0  0  0  0  0  0  0
  -10.0361    0.0000    0.0000 C   0  0  0  0  0  0  0  0  0  0  0  0
   -9.9240    1.4958    0.0000 C   0  0  0  0  0  0  0  0  0  0  0  0
   -9.5902    2.9582    0.0000 C   0  0  0  0  0  0  0  0  0  0  0  0
   -9.0422    4.3545    0.0000 C   0  0  0  0  0  0  0  0  0  0  0  0
   -8.2922    5.6535    0.0000 C   0  0  0  0  0  0  0  0  0  0  0  0
   -7.3570    6.8263    0.0000 C   0  0  0  0  0  0  0  0  0  0  0  0
   -6.2574    7.8466    0.0000 C   0  0  0  0  0  0  0  0  0  0  0  0
   -5.0181    8.6915    0.0000 C   0  0  0  0  0  0  0  0  0  0  0  0
   -3.6666    9.3424    0.0000 C   0  0  0  0  0  0  0  0  0  0  0  0
   -2.2332    9.7845    0.0000 C   0  0  0  0  0  0  0  0  0  0  0  0
   -0.7500   10.0081    0.0000 C   0  0  0  0  0  0  0  0  0  0  0  0
    0.7500   10.0081    0.0000 C   0  0  0  0  0  0  0  0  0  0  0  0
    2.2332    9.7845    0.0000 C   0  0  0  0  0  0  0  0  0  0  0  0
    3.6666    9.3424    0.0000 C   0  0  0  0  0  0  0  0  0  0  0  0
    5.0181    8.6915    0.0000 C   0  0  0  0  0  0  0  0  0  0  0  0
    6.2574    7.8466    0.0000 C   0  0  0  0  0  0  0  0  0  0  0  0
    7.3570    6.8263    0.0000 C   0  0  0  0  0  0  0  0  0  0  0  0
    8.2922    5.6535    0.0000 C   0  0  0  0  0  0  0  0  0  0  0  0
    9.0422    4.3545    0.0000 C   0  0  0  0  0  0  0  0  0  0  0  0
    9.5902    2.9582    0.0000 C   0  0  0  0  0  0  0  0  0  0  0  0
    9.9240    1.4958    0.0000 C   0  0  0  0  0  0  0  0  0  0  0  0
  1  2  1  0
  2  3  2  0
  3  4  1  0
  4  5  2  0
  5  6  1  0
  6  7  2  0
  7  8  1  0
  8  9  2  0
  9 10  1  0
 10 11  2  0
 11 12  1  0
 12 13  2  0
 13 14  1  0
 14 15  2  0
 15 16  1  0
 16 17  2  0
 17 18  1  0
 18 19  2  0
 19 20  1  0
 20 21  2  0
 21 22  1  0
 22 23  2  0
 23 24  1  0
 24 25  2  0
 25 26  1  0
 26 27  2  0
 27 28  1  0
 28 29  2  0
 29 30  1  0
 30 31  2  0
 31 32  1  0
 32 33  2  0
 33 34  1  0
 34 35  2  0
 35 36  1  0
 36 37  2  0
 37 38  1  0
 38 39  2  0
 39 40  1  0
 40 41  2  0
 41 42  1  0
 42 43  2  0
 43  2  1  0
M  END
>  <Title>  (834) 
idABGBgen8

$$$$

     RDKit          2D

 37 42  0  0  0  0  0  0  0  0999 V2000
   -8.2500   -6.4952    0.0000 C   0  0  0  0  0  0  0  0  0  0  0  0
   -7.5000   -5.1962    0.0000 C   0  0  0  0  0  0  0  0  0  0  0  0
   -6.0000   -5.1962    0.0000 C   0  0  0  0  0  0  0  0  0  0  0  0
   -5.2500   -3.8971    0.0000 C   0  0  0  0  0  0  0  0  0  0  0  0
   -6.0000   -2.5981    0.0000 C   0  0  0  0  0  0  0  0  0  0  0  0
   -5.2500   -1.2990    0.0000 N   0  0  0  0  0  0  0  0  0  0  0  0
   -6.0000    0.0000    0.0000 N   0  0  0  0  0  0  0  0  0  0  0  0
   -5.2500    1.2990    0.0000 N   0  0  0  0  0  0  0  0  0  0  0  0
   -3.7500    1.2990    0.0000 N   0  0  0  0  0  0  0  0  0  0  0  0
   -3.0000    0.0000    0.0000 N   0  0  0  0  0  0  0  0  0  0  0  0
   -3.7500   -1.2990    0.0000 N   0  0  0  0  0  0  0  0  0  0  0  0
   -3.0000   -2.5981    0.0000 N   0  0  0  0  0  0  0  0  0  0  0  0
   -3.7500   -3.8971    0.0000 N   0  0  0  0  0  0  0  0  0  0  0  0
   -3.0000   -5.1962    0.0000 N   0  0  0  0  0  0  0  0  0  0  0  0
   -1.5000   -5.1962    0.0000 N   0  0  0  0  0  0  0  0  0  0  0  0
   -0.7500   -3.8971    0.0000 N   0  0  0  0  0  0  0  0  0  0  0  0
   -1.5000   -2.5981    0.0000 N   0  0  0  0  0  0  0  0  0  0  0  0
   -0.7500   -1.2990    0.0000 C   0  0  0  0  0  0  0  0  0  0  0  0
   -1.3601    0.0713    0.0000 C   0  0  0  0  0  0  0  0  0  0  0  0
   -0.2454    1.0750    0.0000 C   0  0  0  0  0  0  0  0  0  0  0  0
    1.0537    0.3250    0.0000 C   0  0  0  0  0  0  0  0  0  0  0  0
    2.4240    0.9351    0.0000 C   0  0  0  0  0  0  0  0  0  0  0  0
    2.7358    2.4023    0.0000 N   0  0  0  0  0  0  0  0  0  0  0  0
    4.2276    2.5591    0.0000 N   0  0  0  0  0  0  0  0  0  0  0  0
    4.8377    1.1888    0.0000 N   0  0  0  0  0  0  0  0  0  0  0  0
    3.7230    0.1851    0.0000 N   0  0  0  0  0  0  0  0  0  0  0  0
    3.8798   -1.3067    0.0000 C   0  0  0  0  0  0  0  0  0  0  0  0
    2.6663   -2.1884    0.0000 C   0  0  0  0  0  0  0  0  0  0  0  0
    2.8231   -3.6802    0.0000 C   0  0  0  0  0  0  0  0  0  0  0  0
    4.1934   -4.2903    0.0000 C   0  0  0  0  0  0  0  0  0  0  0  0
    5.4069   -3.4086    0.0000 C   0  0  0  0  0  0  0  0  0  0  0  0
    5.2501   -1.9168    0.0000 C   0  0  0  0  0  0  0  0  0  0  0  0
    0.7418   -1.1422    0.0000 C   0  0  0  0  0  0  0  0  0  0  0  0
    1.7455   -2.2570    0.0000 O   0  0  0  0  0  0  0  0  0  0  0  0
   -7.5000   -2.5981    0.0000 C   0  0  0  0  0  0  0  0  0  0  0  0
   -8.2500   -1.2990    0.0000 O   0  0  0  0  0  0  0  0  0  0  0  0
   -8.2500   -3.8971    0.0000 N   0  0  0  0  0  0  0  0  0  0  0  0
  1  2  1  0
  2  3  2  0
  3  4  1  0
  4  5  2  0
  5  6  1  0
  6  7  1  0
  7  8  2  0
  8  9  1  0
  9 10  2  0
 10 11  1  0
 11 12  1  0
 12 13  1  0
 13 14  2  0
 14 15  1  0
 15 16  2  0
 16 17  1  0
 17 18  1  0
 18 19  2  0
 19 20  1  0
 20 21  2  0
 21 22  1  0
 22 23  2  0
 23 24  1  0
 24 25  2  0
 25 26  1  0
 26 27  1  0
 27 28  2  0
 28 29  1  0
 29 30  2  0
 30 31  1  0
 31 32  2  0
 21 33  1  0
 33 34  2  0
  5 35  1  0
 35 36  2  0
 35 37  1  0
 37  2  1  0
 11  6  1  0
 17 12  1  0
 33 18  1  0
 26 22  1  0
 32 27  1  0
M  END
>  <Title>  (835) 
idABGCgen8

$$$$

     RDKit          2D

 31 35  0  0  0  0  0  0  0  0999 V2000
    2.9692   -9.5132    0.0000 C   0  0  0  0  0  0  0  0  0  0  0  0
    2.1358   -8.2660    0.0000 C   0  0  0  0  0  0  0  0  0  0  0  0
    3.1965   -7.2054    0.0000 C   0  0  0  0  0  0  0  0  0  0  0  0
    3.7705   -5.8195    0.0000 C   0  0  0  0  0  0  0  0  0  0  0  0
    3.7705   -4.3195    0.0000 C   0  0  0  0  0  0  0  0  0  0  0  0
    5.2659   -4.2019    0.0000 C   0  0  0  0  0  0  0  0  0  0  0  0
    5.6160   -2.7433    0.0000 C   0  0  0  0  0  0  0  0  0  0  0  0
    4.3371   -1.9596    0.0000 C   0  0  0  0  0  0  0  0  0  0  0  0
    3.1965   -2.9337    0.0000 C   0  0  0  0  0  0  0  0  0  0  0  0
    2.1358   -1.8731    0.0000 N   0  0  0  0  0  0  0  0  0  0  0  0
    0.7500   -1.2990    0.0000 C   0  0  0  0  0  0  0  0  0  0  0  0
    1.5000    0.0000    0.0000 C   0  0  0  0  0  0  0  0  0  0  0  0
    0.7500    1.2990    0.0000 C   0  0  0  0  0  0  0  0  0  0  0  0
   -0.7500    1.2990    0.0000 C   0  0  0  0  0  0  0  0  0  0  0  0
   -1.5000    0.0000    0.0000 C   0  0  0  0  0  0  0  0  0  0  0  0
   -0.7500   -1.2990    0.0000 C   0  0  0  0  0  0  0  0  0  0  0  0
   -2.1358   -1.8731    0.0000 N   0  0  0  0  0  0  0  0  0  0  0  0
   -2.5240   -0.4242    0.0000 N   0  0  0  0  0  0  0  0  0  0  0  0
   -3.9729   -0.0359    0.0000 N   0  0  0  0  0  0  0  0  0  0  0  0
   -5.0336   -1.0966    0.0000 N   0  0  0  0  0  0  0  0  0  0  0  0
   -4.6454   -2.5455    0.0000 N   0  0  0  0  0  0  0  0  0  0  0  0
   -3.1965   -2.9337    0.0000 N   0  0  0  0  0  0  0  0  0  0  0  0
   -3.7705   -4.3195    0.0000 C   0  0  0  0  0  0  0  0  0  0  0  0
   -5.2705   -4.3195    0.0000 C   0  0  0  0  0  0  0  0  0  0  0  0
   -5.2705   -5.8195    0.0000 C   0  0  0  0  0  0  0  0  0  0  0  0
   -3.7705   -5.8195    0.0000 C   0  0  0  0  0  0  0  0  0  0  0  0
   -3.1965   -7.2054    0.0000 N   0  0  0  0  0  0  0  0  0  0  0  0
   -2.1358   -8.2660    0.0000 C   0  0  0  0  0  0  0  0  0  0  0  0
   -2.9692   -9.5132    0.0000 O   0  0  0  0  0  0  0  0  0  0  0  0
   -0.7500   -8.8400    0.0000 C   0  0  0  0  0  0  0  0  0  0  0  0
    0.7500   -8.8400    0.0000 N   0  0  0  0  0  0  0  0  0  0  0  0
  1  2  1  0
  2  3  2  0
  3  4  1  0
  4  5  2  0
  5  6  1  0
  6  7  2  0
  7  8  1  0
  8  9  2  0
  9 10  1  0
 10 11  1  0
 11 12  2  0
 12 13  1  0
 13 14  2  0
 14 15  1  0
 15 16  2  0
 16 17  1  0
 17 18  1  0
 18 19  2  0
 19 20  1  0
 20 21  2  0
 21 22  1  0
 22 23  1  0
 23 24  2  0
 24 25  1  0
 25 26  2  0
 26 27  1  0
 27 28  1  0
 28 29  2  0
 28 30  1  0
 30 31  1  0
 31  2  1  0
  9  5  1  0
 16 11  1  0
 22 17  1  0
 26 23  1  0
M  END
>  <Title>  (836) 
idABGDgen8

$$$$

     RDKit          2D

 39 43  0  0  0  0  0  0  0  0999 V2000
    4.6771    8.5977    0.0000 C   0  0  0  0  0  0  0  0  0  0  0  0
    3.9271    9.8967    0.0000 O   0  0  0  0  0  0  0  0  0  0  0  0
    2.4271    9.8967    0.0000 C   0  0  0  0  0  0  0  0  0  0  0  0
    1.9635   11.3233    0.0000 C   0  0  0  0  0  0  0  0  0  0  0  0
    3.1771   12.2050    0.0000 O   0  0  0  0  0  0  0  0  0  0  0  0
    0.7500   12.2050    0.0000 C   0  0  0  0  0  0  0  0  0  0  0  0
   -0.7500   12.2050    0.0000 C   0  0  0  0  0  0  0  0  0  0  0  0
   -1.9635   11.3233    0.0000 C   0  0  0  0  0  0  0  0  0  0  0  0
   -2.4271    9.8967    0.0000 C   0  0  0  0  0  0  0  0  0  0  0  0
   -1.9635    8.4702    0.0000 C   0  0  0  0  0  0  0  0  0  0  0  0
   -0.7500    7.5885    0.0000 C   0  0  0  0  0  0  0  0  0  0  0  0
   -1.2135    6.1619    0.0000 C   0  0  0  0  0  0  0  0  0  0  0  0
   -2.6401    5.6984    0.0000 N   0  0  0  0  0  0  0  0  0  0  0  0
   -2.6401    4.1984    0.0000 N   0  0  0  0  0  0  0  0  0  0  0  0
   -1.2135    3.7348    0.0000 N   0  0  0  0  0  0  0  0  0  0  0  0
   -0.3318    4.9484    0.0000 N   0  0  0  0  0  0  0  0  0  0  0  0
    1.1682    4.9484    0.0000 C   0  0  0  0  0  0  0  0  0  0  0  0
    2.0498    6.1619    0.0000 C   0  0  0  0  0  0  0  0  0  0  0  0
    3.4764    5.6984    0.0000 C   0  0  0  0  0  0  0  0  0  0  0  0
    3.4764    4.1984    0.0000 C   0  0  0  0  0  0  0  0  0  0  0  0
    4.6899    3.3167    0.0000 C   0  0  0  0  0  0  0  0  0  0  0  0
    6.0603    3.9268    0.0000 O   0  0  0  0  0  0  0  0  0  0  0  0
    4.5331    1.8249    0.0000 N   0  0  0  0  0  0  0  0  0  0  0  0
    5.7467    0.9432    0.0000 C   0  0  0  0  0  0  0  0  0  0  0  0
    7.1733    1.4068    0.0000 N   0  0  0  0  0  0  0  0  0  0  0  0
    8.0549    0.1932    0.0000 N   0  0  0  0  0  0  0  0  0  0  0  0
    7.1733   -1.0203    0.0000 N   0  0  0  0  0  0  0  0  0  0  0  0
    5.7467   -0.5568    0.0000 N   0  0  0  0  0  0  0  0  0  0  0  0
    4.5331   -1.4384    0.0000 C   0  0  0  0  0  0  0  0  0  0  0  0
    3.1628   -0.8283    0.0000 C   0  0  0  0  0  0  0  0  0  0  0  0
    1.9493   -1.7100    0.0000 C   0  0  0  0  0  0  0  0  0  0  0  0
    2.1061   -3.2018    0.0000 C   0  0  0  0  0  0  0  0  0  0  0  0
    3.4764   -3.8119    0.0000 C   0  0  0  0  0  0  0  0  0  0  0  0
    4.6899   -2.9302    0.0000 C   0  0  0  0  0  0  0  0  0  0  0  0
    2.0498    3.7348    0.0000 C   0  0  0  0  0  0  0  0  0  0  0  0
    1.5863    2.3083    0.0000 O   0  0  0  0  0  0  0  0  0  0  0  0
    0.7500    7.5885    0.0000 N   0  0  0  0  0  0  0  0  0  0  0  0
    1.9635    8.4702    0.0000 C   0  0  0  0  0  0  0  0  0  0  0  0
    3.1771    7.5885    0.0000 O   0  0  0  0  0  0  0  0  0  0  0  0
  1  2  1  0
  2  3  1  0
  3  4  2  0
  4  5  1  0
  4  6  1  0
  6  7  2  0
  7  8  1  0
  8  9  2  0
  9 10  1  0
 10 11  2  0
 11 12  1  0
 12 13  2  0
 13 14  1  0
 14 15  2  0
 15 16  1  0
 16 17  1  0
 17 18  2  0
 18 19  1  0
 19 20  2  0
 20 21  1  0
 21 22  2  0
 21 23  1  0
 23 24  1  0
 24 25  2  0
 25 26  1  0
 26 27  2  0
 27 28  1  0
 28 29  1  0
 29 30  2  0
 30 31  1  0
 31 32  2  0
 32 33  1  0
 33 34  2  0
 20 35  1  0
 35 36  2  0
 11 37  1  0
 37 38  1  0
 38 39  2  0
 38  3  1  0
 16 12  1  0
 35 17  1  0
 28 24  1  0
 34 29  1  0
M  END
>  <Title>  (837) 
idABGEgen8

$$$$

     RDKit          2D

  8  8  0  0  0  0  0  0  0  0999 V2000
    3.5260   -1.2990    0.0000 C   0  0  0  0  0  0  0  0  0  0  0  0
    2.7760    0.0000    0.0000 O   0  0  0  0  0  0  0  0  0  0  0  0
    1.2760    0.0000    0.0000 C   0  0  0  0  0  0  0  0  0  0  0  0
    0.3943    1.2135    0.0000 C   0  0  0  0  0  0  0  0  0  0  0  0
    0.8578    2.6401    0.0000 O   0  0  0  0  0  0  0  0  0  0  0  0
   -1.0323    0.7500    0.0000 C   0  0  0  0  0  0  0  0  0  0  0  0
   -1.0323   -0.7500    0.0000 C   0  0  0  0  0  0  0  0  0  0  0  0
    0.3943   -1.2135    0.0000 C   0  0  0  0  0  0  0  0  0  0  0  0
  1  2  1  0
  2  3  1  0
  3  4  2  0
  4  5  1  0
  4  6  1  0
  6  7  2  0
  7  8  1  0
  8  3  1  0
M  END
>  <Title>  (838) 
idABGFgen8

$$$$

     RDKit          2D

 56 65  0  0  0  0  0  0  0  0999 V2000
  -10.1624    4.2767    0.0000 C   0  0  0  0  0  0  0  0  0  0  0  0
   -8.9488    3.3950    0.0000 C   0  0  0  0  0  0  0  0  0  0  0  0
   -9.1056    1.9033    0.0000 C   0  0  0  0  0  0  0  0  0  0  0  0
   -7.8921    1.0216    0.0000 C   0  0  0  0  0  0  0  0  0  0  0  0
   -6.5218    1.6317    0.0000 C   0  0  0  0  0  0  0  0  0  0  0  0
   -5.3083    0.7500    0.0000 C   0  0  0  0  0  0  0  0  0  0  0  0
   -5.3083   -0.7500    0.0000 N   0  0  0  0  0  0  0  0  0  0  0  0
   -3.8817   -1.2135    0.0000 N   0  0  0  0  0  0  0  0  0  0  0  0
   -3.0000    0.0000    0.0000 N   0  0  0  0  0  0  0  0  0  0  0  0
   -3.8817    1.2135    0.0000 N   0  0  0  0  0  0  0  0  0  0  0  0
   -3.4182    2.6401    0.0000 C   0  0  0  0  0  0  0  0  0  0  0  0
   -4.2998    3.8536    0.0000 N   0  0  0  0  0  0  0  0  0  0  0  0
   -3.4182    5.0672    0.0000 C   0  0  0  0  0  0  0  0  0  0  0  0
   -3.8817    6.4937    0.0000 C   0  0  0  0  0  0  0  0  0  0  0  0
   -5.3083    6.9573    0.0000 N   0  0  0  0  0  0  0  0  0  0  0  0
   -5.3083    8.4573    0.0000 N   0  0  0  0  0  0  0  0  0  0  0  0
   -3.8817    8.9208    0.0000 N   0  0  0  0  0  0  0  0  0  0  0  0
   -3.0000    7.7073    0.0000 N   0  0  0  0  0  0  0  0  0  0  0  0
   -1.5000    7.7073    0.0000 C   0  0  0  0  0  0  0  0  0  0  0  0
   -0.6183    8.9208    0.0000 C   0  0  0  0  0  0  0  0  0  0  0  0
    0.8083    8.4573    0.0000 C   0  0  0  0  0  0  0  0  0  0  0  0
    0.8083    6.9573    0.0000 C   0  0  0  0  0  0  0  0  0  0  0  0
    2.0218    6.0756    0.0000 N   0  0  0  0  0  0  0  0  0  0  0  0
    3.4484    6.5391    0.0000 C   0  0  0  0  0  0  0  0  0  0  0  0
    4.3301    5.3256    0.0000 C   0  0  0  0  0  0  0  0  0  0  0  0
    3.4484    4.1121    0.0000 C   0  0  0  0  0  0  0  0  0  0  0  0
    2.0218    4.5756    0.0000 C   0  0  0  0  0  0  0  0  0  0  0  0
   -0.6183    6.4937    0.0000 C   0  0  0  0  0  0  0  0  0  0  0  0
   -1.0818    5.0672    0.0000 O   0  0  0  0  0  0  0  0  0  0  0  0
   -1.9916    4.6036    0.0000 C   0  0  0  0  0  0  0  0  0  0  0  0
   -1.9916    3.1036    0.0000 C   0  0  0  0  0  0  0  0  0  0  0  0
   -0.7780    2.2220    0.0000 C   0  0  0  0  0  0  0  0  0  0  0  0
    0.6485    2.6855    0.0000 N   0  0  0  0  0  0  0  0  0  0  0  0
    1.5302    1.4720    0.0000 N   0  0  0  0  0  0  0  0  0  0  0  0
    0.6485    0.2584    0.0000 N   0  0  0  0  0  0  0  0  0  0  0  0
   -0.7780    0.7220    0.0000 N   0  0  0  0  0  0  0  0  0  0  0  0
   -1.9916   -0.1597    0.0000 C   0  0  0  0  0  0  0  0  0  0  0  0
   -3.4182    0.3038    0.0000 C   0  0  0  0  0  0  0  0  0  0  0  0
   -4.2998   -0.9097    0.0000 C   0  0  0  0  0  0  0  0  0  0  0  0
   -3.4182   -2.1232    0.0000 C   0  0  0  0  0  0  0  0  0  0  0  0
   -3.8817   -3.5498    0.0000 C   0  0  0  0  0  0  0  0  0  0  0  0
   -5.3083   -4.0134    0.0000 N   0  0  0  0  0  0  0  0  0  0  0  0
   -5.3083   -5.5134    0.0000 N   0  0  0  0  0  0  0  0  0  0  0  0
   -3.8817   -5.9769    0.0000 N   0  0  0  0  0  0  0  0  0  0  0  0
   -3.0000   -4.7634    0.0000 N   0  0  0  0  0  0  0  0  0  0  0  0
   -1.5000   -4.7634    0.0000 C   0  0  0  0  0  0  0  0  0  0  0  0
   -0.7500   -3.4643    0.0000 C   0  0  0  0  0  0  0  0  0  0  0  0
    0.7500   -3.4643    0.0000 C   0  0  0  0  0  0  0  0  0  0  0  0
    1.5000   -4.7634    0.0000 C   0  0  0  0  0  0  0  0  0  0  0  0
    0.7500   -6.0624    0.0000 C   0  0  0  0  0  0  0  0  0  0  0  0
   -0.7500   -6.0624    0.0000 C   0  0  0  0  0  0  0  0  0  0  0  0
   -1.9916   -1.6597    0.0000 C   0  0  0  0  0  0  0  0  0  0  0  0
   -0.7780   -2.5414    0.0000 O   0  0  0  0  0  0  0  0  0  0  0  0
   -6.3650    3.1235    0.0000 N   0  0  0  0  0  0  0  0  0  0  0  0
   -7.5785    4.0051    0.0000 C   0  0  0  0  0  0  0  0  0  0  0  0
   -7.4217    5.4969    0.0000 O   0  0  0  0  0  0  0  0  0  0  0  0
  1  2  1  0
  2  3  2  0
  3  4  1  0
  4  5  2  0
  5  6  1  0
  6  7  2  0
  7  8  1  0
  8  9  2  0
  9 10  1  0
 10 11  1  0
 11 12  1  0
 12 13  1  0
 13 14  1  0
 14 15  2  0
 15 16  1  0
 16 17  2  0
 17 18  1  0
 18 19  1  0
 19 20  2  0
 20 21  1  0
 21 22  2  0
 22 23  1  0
 23 24  1  0
 24 25  2  0
 25 26  1  0
 26 27  2  0
 22 28  1  0
 28 29  2  0
 13 30  1  0
 30 31  2  0
 31 32  1  0
 32 33  2  0
 33 34  1  0
 34 35  2  0
 35 36  1  0
 36 37  1  0
 37 38  2  0
 38 39  1  0
 39 40  2  0
 40 41  1  0
 41 42  2  0
 42 43  1  0
 43 44  2  0
 44 45  1  0
 45 46  1  0
 46 47  2  0
 47 48  1  0
 48 49  2  0
 49 50  1  0
 50 51  2  0
 40 52  1  0
 52 53  2  0
  5 54  1  0
 54 55  1  0
 55 56  2  0
 55  2  1  0
 10  6  1  0
 31 11  1  0
 36 32  1  0
 52 37  1  0
 18 14  1  0
 28 19  1  0
 45 41  1  0
 51 46  1  0
 27 23  1  0
M  END
>  <Title>  (839) 
idABGGgen8

$$$$

     RDKit          2D

 54 62  0  0  0  0  0  0  0  0999 V2000
    3.2286   -0.0000    0.0000 C   0  0  0  0  0  0  0  0  0  0  0  0
    1.7286    0.0000    0.0000 C   0  0  0  0  0  0  0  0  0  0  0  0
    1.0777    1.3515    0.0000 C   0  0  0  0  0  0  0  0  0  0  0  0
   -0.3846    1.6852    0.0000 C   0  0  0  0  0  0  0  0  0  0  0  0
   -1.5574    0.7500    0.0000 C   0  0  0  0  0  0  0  0  0  0  0  0
   -2.9088    1.4008    0.0000 C   0  0  0  0  0  0  0  0  0  0  0  0
   -4.2297    0.6900    0.0000 N   0  0  0  0  0  0  0  0  0  0  0  0
   -5.3139    1.7266    0.0000 N   0  0  0  0  0  0  0  0  0  0  0  0
   -4.6631    3.0781    0.0000 N   0  0  0  0  0  0  0  0  0  0  0  0
   -3.1767    2.8767    0.0000 N   0  0  0  0  0  0  0  0  0  0  0  0
   -2.1401    3.9609    0.0000 C   0  0  0  0  0  0  0  0  0  0  0  0
   -0.6829    3.6053    0.0000 C   0  0  0  0  0  0  0  0  0  0  0  0
    0.3537    4.6895    0.0000 C   0  0  0  0  0  0  0  0  0  0  0  0
   -0.0669    6.1293    0.0000 C   0  0  0  0  0  0  0  0  0  0  0  0
    0.9697    7.2135    0.0000 C   0  0  0  0  0  0  0  0  0  0  0  0
    0.7019    8.6894    0.0000 N   0  0  0  0  0  0  0  0  0  0  0  0
    2.0228    9.4002    0.0000 N   0  0  0  0  0  0  0  0  0  0  0  0
    3.1069    8.3636    0.0000 N   0  0  0  0  0  0  0  0  0  0  0  0
    2.4561    7.0121    0.0000 N   0  0  0  0  0  0  0  0  0  0  0  0
    3.1669    5.6912    0.0000 C   0  0  0  0  0  0  0  0  0  0  0  0
    2.3784    4.4152    0.0000 C   0  0  0  0  0  0  0  0  0  0  0  0
    3.0892    3.0943    0.0000 C   0  0  0  0  0  0  0  0  0  0  0  0
    4.5885    3.0495    0.0000 C   0  0  0  0  0  0  0  0  0  0  0  0
    5.3771    4.3255    0.0000 C   0  0  0  0  0  0  0  0  0  0  0  0
    4.6663    5.6464    0.0000 C   0  0  0  0  0  0  0  0  0  0  0  0
   -1.5241    6.4849    0.0000 C   0  0  0  0  0  0  0  0  0  0  0  0
   -2.5607    5.4007    0.0000 C   0  0  0  0  0  0  0  0  0  0  0  0
   -4.0180    5.7563    0.0000 C   0  0  0  0  0  0  0  0  0  0  0  0
   -5.1622    4.7864    0.0000 C   0  0  0  0  0  0  0  0  0  0  0  0
   -6.4382    5.5750    0.0000 C   0  0  0  0  0  0  0  0  0  0  0  0
   -6.0826    7.0322    0.0000 C   0  0  0  0  0  0  0  0  0  0  0  0
   -7.0525    8.1765    0.0000 C   0  0  0  0  0  0  0  0  0  0  0  0
   -8.5483    8.0644    0.0000 N   0  0  0  0  0  0  0  0  0  0  0  0
   -9.1171    9.4523    0.0000 N   0  0  0  0  0  0  0  0  0  0  0  0
   -7.9729   10.4222    0.0000 N   0  0  0  0  0  0  0  0  0  0  0  0
   -6.6969    9.6337    0.0000 N   0  0  0  0  0  0  0  0  0  0  0  0
   -5.3089   10.2025    0.0000 C   0  0  0  0  0  0  0  0  0  0  0  0
   -4.1223    9.2849    0.0000 C   0  0  0  0  0  0  0  0  0  0  0  0
   -2.7344    9.8538    0.0000 C   0  0  0  0  0  0  0  0  0  0  0  0
   -2.5330   11.3402    0.0000 C   0  0  0  0  0  0  0  0  0  0  0  0
   -3.7196   12.2578    0.0000 C   0  0  0  0  0  0  0  0  0  0  0  0
   -5.1076   11.6889    0.0000 C   0  0  0  0  0  0  0  0  0  0  0  0
   -6.2942   12.6065    0.0000 C   0  0  0  0  0  0  0  0  0  0  0  0
   -6.0928   14.0930    0.0000 C   0  0  0  0  0  0  0  0  0  0  0  0
   -7.2794   15.0105    0.0000 C   0  0  0  0  0  0  0  0  0  0  0  0
   -8.6674   14.4417    0.0000 C   0  0  0  0  0  0  0  0  0  0  0  0
   -8.8687   12.9553    0.0000 C   0  0  0  0  0  0  0  0  0  0  0  0
   -7.6821   12.0377    0.0000 C   0  0  0  0  0  0  0  0  0  0  0  0
   -4.5868    7.1443    0.0000 C   0  0  0  0  0  0  0  0  0  0  0  0
   -3.7983    8.4203    0.0000 O   0  0  0  0  0  0  0  0  0  0  0  0
   -1.5574   -0.7500    0.0000 N   0  0  0  0  0  0  0  0  0  0  0  0
   -0.3846   -1.6852    0.0000 C   0  0  0  0  0  0  0  0  0  0  0  0
   -0.7184   -3.1476    0.0000 O   0  0  0  0  0  0  0  0  0  0  0  0
    1.0777   -1.3515    0.0000 C   0  0  0  0  0  0  0  0  0  0  0  0
  1  2  1  0
  2  3  2  0
  3  4  1  0
  4  5  2  0
  5  6  1  0
  6  7  2  0
  7  8  1  0
  8  9  2  0
  9 10  1  0
 10 11  1  0
 11 12  2  0
 12 13  1  0
 13 14  2  0
 14 15  1  0
 15 16  2  0
 16 17  1  0
 17 18  2  0
 18 19  1  0
 19 20  1  0
 20 21  2  0
 21 22  1  0
 22 23  2  0
 23 24  1  0
 24 25  2  0
 14 26  1  0
 26 27  2  0
 27 28  1  0
 28 29  2  0
 29 30  1  0
 30 31  2  0
 31 32  1  0
 32 33  2  0
 33 34  1  0
 34 35  2  0
 35 36  1  0
 36 37  1  0
 37 38  2  0
 38 39  1  0
 39 40  2  0
 40 41  1  0
 41 42  2  0
 42 43  1  0
 43 44  2  0
 44 45  1  0
 45 46  2  0
 46 47  1  0
 47 48  2  0
 31 49  1  0
 49 50  2  0
  5 51  1  0
 51 52  1  0
 52 53  2  0
 52 54  1  0
 54  2  1  0
 10  6  1  0
 27 11  1  0
 49 28  1  0
 19 15  1  0
 25 20  1  0
 36 32  1  0
 42 37  1  0
 48 43  1  0
M  END
>  <Title>  (840) 
idABGHgen8

$$$$

     RDKit          2D

 18 18  0  0  0  0  0  0  0  0999 V2000
    5.5816    0.0000    0.0000 O   0  0  0  0  0  0  0  0  0  0  0  0
    4.0816    0.0000    0.0000 C   0  0  0  0  0  0  0  0  0  0  0  0
    3.8060    1.4745    0.0000 C   0  0  0  0  0  0  0  0  0  0  0  0
    3.0164    2.7498    0.0000 C   0  0  0  0  0  0  0  0  0  0  0  0
    1.8193    3.6537    0.0000 C   0  0  0  0  0  0  0  0  0  0  0  0
    0.3766    4.0642    0.0000 C   0  0  0  0  0  0  0  0  0  0  0  0
   -1.1170    3.9258    0.0000 C   0  0  0  0  0  0  0  0  0  0  0  0
   -2.4597    3.2572    0.0000 C   0  0  0  0  0  0  0  0  0  0  0  0
   -3.4703    2.1487    0.0000 C   0  0  0  0  0  0  0  0  0  0  0  0
   -4.0121    0.7500    0.0000 C   0  0  0  0  0  0  0  0  0  0  0  0
   -4.0121   -0.7500    0.0000 C   0  0  0  0  0  0  0  0  0  0  0  0
   -3.4703   -2.1487    0.0000 C   0  0  0  0  0  0  0  0  0  0  0  0
   -2.4597   -3.2572    0.0000 C   0  0  0  0  0  0  0  0  0  0  0  0
   -1.1170   -3.9258    0.0000 C   0  0  0  0  0  0  0  0  0  0  0  0
    0.3766   -4.0642    0.0000 C   0  0  0  0  0  0  0  0  0  0  0  0
    1.8193   -3.6537    0.0000 C   0  0  0  0  0  0  0  0  0  0  0  0
    3.0164   -2.7498    0.0000 C   0  0  0  0  0  0  0  0  0  0  0  0
    3.8060   -1.4745    0.0000 C   0  0  0  0  0  0  0  0  0  0  0  0
  1  2  1  0
  2  3  2  0
  3  4  1  0
  4  5  2  0
  5  6  2  0
  6  7  1  0
  7  8  2  0
  8  9  1  0
  9 10  2  0
 10 11  1  0
 11 12  2  0
 12 13  1  0
 13 14  2  0
 14 15  1  0
 15 16  2  0
 16 17  1  0
 17 18  2  0
 18  2  1  0
M  END
>  <Title>  (841) 
idABGIgen8

$$$$

     RDKit          2D

 37 41  0  0  0  0  0  0  0  0999 V2000
   -3.8108   -2.4186    0.0000 O   0  0  0  0  0  0  0  0  0  0  0  0
   -2.4315   -1.8291    0.0000 C   0  0  0  0  0  0  0  0  0  0  0  0
   -1.1438   -2.5984    0.0000 C   0  0  0  0  0  0  0  0  0  0  0  0
   -1.0094   -4.0924    0.0000 C   0  0  0  0  0  0  0  0  0  0  0  0
   -2.2359   -4.9558    0.0000 N   0  0  0  0  0  0  0  0  0  0  0  0
   -2.1015   -6.4498    0.0000 C   0  0  0  0  0  0  0  0  0  0  0  0
   -0.7404   -7.0803    0.0000 O   0  0  0  0  0  0  0  0  0  0  0  0
   -3.3281   -7.3132    0.0000 C   0  0  0  0  0  0  0  0  0  0  0  0
   -4.6891   -6.6827    0.0000 C   0  0  0  0  0  0  0  0  0  0  0  0
   -5.9157   -7.5461    0.0000 C   0  0  0  0  0  0  0  0  0  0  0  0
   -5.7812   -9.0401    0.0000 C   0  0  0  0  0  0  0  0  0  0  0  0
   -4.4202   -9.6706    0.0000 C   0  0  0  0  0  0  0  0  0  0  0  0
   -3.1936   -8.8072    0.0000 C   0  0  0  0  0  0  0  0  0  0  0  0
   -0.0142   -1.6115    0.0000 C   0  0  0  0  0  0  0  0  0  0  0  0
   -0.6038   -0.2322    0.0000 C   0  0  0  0  0  0  0  0  0  0  0  0
   -2.0977   -0.3667    0.0000 C   0  0  0  0  0  0  0  0  0  0  0  0
   -3.0846    0.7629    0.0000 N   0  0  0  0  0  0  0  0  0  0  0  0
   -4.5786    0.6285    0.0000 N   0  0  0  0  0  0  0  0  0  0  0  0
   -5.1681    2.0077    0.0000 N   0  0  0  0  0  0  0  0  0  0  0  0
   -4.0385    2.9947    0.0000 N   0  0  0  0  0  0  0  0  0  0  0  0
   -2.7508    2.2253    0.0000 C   0  0  0  0  0  0  0  0  0  0  0  0
   -1.3716    2.8148    0.0000 C   0  0  0  0  0  0  0  0  0  0  0  0
   -0.3846    1.6852    0.0000 C   0  0  0  0  0  0  0  0  0  0  0  0
    1.0777    1.3515    0.0000 C   0  0  0  0  0  0  0  0  0  0  0  0
    2.4570    1.9410    0.0000 C   0  0  0  0  0  0  0  0  0  0  0  0
    3.4439    0.8114    0.0000 O   0  0  0  0  0  0  0  0  0  0  0  0
    3.2264    3.2287    0.0000 C   0  0  0  0  0  0  0  0  0  0  0  0
    3.0919    4.7226    0.0000 N   0  0  0  0  0  0  0  0  0  0  0  0
    2.1050    5.8522    0.0000 N   0  0  0  0  0  0  0  0  0  0  0  0
    0.6426    6.1860    0.0000 N   0  0  0  0  0  0  0  0  0  0  0  0
   -0.7367    5.5965    0.0000 C   0  0  0  0  0  0  0  0  0  0  0  0
   -1.2637    7.0008    0.0000 C   0  0  0  0  0  0  0  0  0  0  0  0
   -2.6903    7.4644    0.0000 C   0  0  0  0  0  0  0  0  0  0  0  0
   -3.9422    6.6380    0.0000 C   0  0  0  0  0  0  0  0  0  0  0  0
   -4.0766    5.1440    0.0000 C   0  0  0  0  0  0  0  0  0  0  0  0
   -2.9924    4.1075    0.0000 C   0  0  0  0  0  0  0  0  0  0  0  0
   -1.5060    4.3088    0.0000 N   0  0  0  0  0  0  0  0  0  0  0  0
  1  2  2  0
  2  3  1  0
  3  4  1  0
  4  5  1  0
  5  6  1  0
  6  7  2  0
  6  8  1  0
  8  9  2  0
  9 10  1  0
 10 11  2  0
 11 12  1  0
 12 13  2  0
  3 14  2  0
 14 15  1  0
 15 16  2  0
 16 17  1  0
 17 18  1  0
 18 19  2  0
 19 20  1  0
 20 21  2  0
 21 22  1  0
 22 23  2  0
 23 24  1  0
 24 25  2  0
 25 26  1  0
 25 27  1  0
 27 28  2  0
 28 29  1  0
 29 30  2  0
 30 31  1  0
 31 32  2  0
 32 33  1  0
 33 34  2  0
 34 35  1  0
 35 36  2  0
 36 37  1  0
 16  2  1  0
 21 17  1  0
 37 22  1  0
 13  8  1  0
 37 31  1  0
M  END
>  <Title>  (842) 
idABGJgen8

$$$$

     RDKit          2D

 40 45  0  0  0  0  0  0  0  0999 V2000
    3.0000    0.0000    0.0000 C   0  0  0  0  0  0  0  0  0  0  0  0
    1.5000    0.0000    0.0000 C   0  0  0  0  0  0  0  0  0  0  0  0
    0.7500    1.2990    0.0000 C   0  0  0  0  0  0  0  0  0  0  0  0
   -0.7500    1.2990    0.0000 C   0  0  0  0  0  0  0  0  0  0  0  0
   -1.5000    0.0000    0.0000 C   0  0  0  0  0  0  0  0  0  0  0  0
   -3.0000    0.0000    0.0000 C   0  0  0  0  0  0  0  0  0  0  0  0
   -3.8817   -1.2135    0.0000 N   0  0  0  0  0  0  0  0  0  0  0  0
   -5.3083   -0.7500    0.0000 N   0  0  0  0  0  0  0  0  0  0  0  0
   -5.3083    0.7500    0.0000 N   0  0  0  0  0  0  0  0  0  0  0  0
   -3.8817    1.2135    0.0000 N   0  0  0  0  0  0  0  0  0  0  0  0
   -3.4182    2.6401    0.0000 C   0  0  0  0  0  0  0  0  0  0  0  0
   -1.9509    2.9520    0.0000 C   0  0  0  0  0  0  0  0  0  0  0  0
   -1.4874    4.3786    0.0000 C   0  0  0  0  0  0  0  0  0  0  0  0
   -2.4911    5.4933    0.0000 C   0  0  0  0  0  0  0  0  0  0  0  0
   -2.0276    6.9199    0.0000 C   0  0  0  0  0  0  0  0  0  0  0  0
   -2.9093    8.1334    0.0000 N   0  0  0  0  0  0  0  0  0  0  0  0
   -2.0276    9.3469    0.0000 N   0  0  0  0  0  0  0  0  0  0  0  0
   -0.6010    8.8834    0.0000 N   0  0  0  0  0  0  0  0  0  0  0  0
   -0.6010    7.3834    0.0000 N   0  0  0  0  0  0  0  0  0  0  0  0
    0.6125    6.5017    0.0000 C   0  0  0  0  0  0  0  0  0  0  0  0
    0.4557    5.0099    0.0000 C   0  0  0  0  0  0  0  0  0  0  0  0
    1.6693    4.1283    0.0000 C   0  0  0  0  0  0  0  0  0  0  0  0
    3.0396    4.7384    0.0000 C   0  0  0  0  0  0  0  0  0  0  0  0
    3.1964    6.2301    0.0000 N   0  0  0  0  0  0  0  0  0  0  0  0
    1.9829    7.1118    0.0000 C   0  0  0  0  0  0  0  0  0  0  0  0
   -3.9583    5.1814    0.0000 C   0  0  0  0  0  0  0  0  0  0  0  0
   -4.4218    3.7548    0.0000 C   0  0  0  0  0  0  0  0  0  0  0  0
   -5.8891    3.4430    0.0000 C   0  0  0  0  0  0  0  0  0  0  0  0
   -6.8928    4.5577    0.0000 C   0  0  0  0  0  0  0  0  0  0  0  0
   -8.3600    4.2458    0.0000 C   0  0  0  0  0  0  0  0  0  0  0  0
   -8.8235    2.8192    0.0000 C   0  0  0  0  0  0  0  0  0  0  0  0
  -10.2907    2.5074    0.0000 C   0  0  0  0  0  0  0  0  0  0  0  0
  -10.7543    1.0808    0.0000 O   0  0  0  0  0  0  0  0  0  0  0  0
  -11.2944    3.6221    0.0000 N   0  0  0  0  0  0  0  0  0  0  0  0
  -12.7617    3.3102    0.0000 O   0  0  0  0  0  0  0  0  0  0  0  0
   -7.8198    1.7045    0.0000 C   0  0  0  0  0  0  0  0  0  0  0  0
   -6.3526    2.0164    0.0000 C   0  0  0  0  0  0  0  0  0  0  0  0
   -0.7500   -1.2990    0.0000 C   0  0  0  0  0  0  0  0  0  0  0  0
   -1.5000   -2.5981    0.0000 O   0  0  0  0  0  0  0  0  0  0  0  0
    0.7500   -1.2990    0.0000 N   0  0  0  0  0  0  0  0  0  0  0  0
  1  2  1  0
  2  3  2  0
  3  4  1  0
  4  5  2  0
  5  6  1  0
  6  7  2  0
  7  8  1  0
  8  9  2  0
  9 10  1  0
 10 11  1  0
 11 12  2  0
 12 13  1  0
 13 14  2  0
 14 15  1  0
 15 16  2  0
 16 17  1  0
 17 18  2  0
 18 19  1  0
 19 20  1  0
 20 21  2  0
 21 22  1  0
 22 23  2  0
 23 24  1  0
 24 25  2  0
 14 26  1  0
 26 27  2  0
 27 28  1  0
 28 29  2  0
 29 30  1  0
 30 31  2  0
 31 32  1  0
 32 33  2  0
 32 34  1  0
 34 35  1  0
 31 36  1  0
 36 37  1  0
  5 38  1  0
 38 39  2  0
 38 40  1  0
 40  2  1  0
 10  6  1  0
 27 11  1  0
 37 28  1  0
 19 15  1  0
 25 20  1  0
M  END
>  <Title>  (843) 
idABGKgen8

$$$$

     RDKit          2D

 29 29  0  0  0  0  0  0  0  0999 V2000
    8.1986    0.0000    0.0000 C   0  0  0  0  0  0  0  0  0  0  0  0
    6.6986    0.0000    0.0000 C   0  0  0  0  0  0  0  0  0  0  0  0
    6.5306   -1.4906    0.0000 N   0  0  0  0  0  0  0  0  0  0  0  0
    6.0352   -2.9064    0.0000 C   0  0  0  0  0  0  0  0  0  0  0  0
    5.2371   -4.1765    0.0000 C   0  0  0  0  0  0  0  0  0  0  0  0
    4.1765   -5.2371    0.0000 C   0  0  0  0  0  0  0  0  0  0  0  0
    2.9064   -6.0352    0.0000 C   0  0  0  0  0  0  0  0  0  0  0  0
    1.4906   -6.5306    0.0000 C   0  0  0  0  0  0  0  0  0  0  0  0
   -0.0000   -6.6986    0.0000 C   0  0  0  0  0  0  0  0  0  0  0  0
   -1.4906   -6.5306    0.0000 C   0  0  0  0  0  0  0  0  0  0  0  0
   -2.9064   -6.0352    0.0000 C   0  0  0  0  0  0  0  0  0  0  0  0
   -4.1765   -5.2371    0.0000 C   0  0  0  0  0  0  0  0  0  0  0  0
   -5.2371   -4.1765    0.0000 C   0  0  0  0  0  0  0  0  0  0  0  0
   -6.0352   -2.9064    0.0000 C   0  0  0  0  0  0  0  0  0  0  0  0
   -6.5306   -1.4906    0.0000 C   0  0  0  0  0  0  0  0  0  0  0  0
   -6.6986    0.0000    0.0000 C   0  0  0  0  0  0  0  0  0  0  0  0
   -6.5306    1.4906    0.0000 C   0  0  0  0  0  0  0  0  0  0  0  0
   -6.0352    2.9064    0.0000 C   0  0  0  0  0  0  0  0  0  0  0  0
   -5.2371    4.1765    0.0000 C   0  0  0  0  0  0  0  0  0  0  0  0
   -4.1765    5.2371    0.0000 C   0  0  0  0  0  0  0  0  0  0  0  0
   -2.9064    6.0352    0.0000 C   0  0  0  0  0  0  0  0  0  0  0  0
   -1.4906    6.5306    0.0000 C   0  0  0  0  0  0  0  0  0  0  0  0
    0.0000    6.6986    0.0000 C   0  0  0  0  0  0  0  0  0  0  0  0
    1.4906    6.5306    0.0000 C   0  0  0  0  0  0  0  0  0  0  0  0
    2.9064    6.0352    0.0000 C   0  0  0  0  0  0  0  0  0  0  0  0
    4.1765    5.2371    0.0000 C   0  0  0  0  0  0  0  0  0  0  0  0
    5.2371    4.1765    0.0000 C   0  0  0  0  0  0  0  0  0  0  0  0
    6.0352    2.9064    0.0000 C   0  0  0  0  0  0  0  0  0  0  0  0
    6.5306    1.4906    0.0000 C   0  0  0  0  0  0  0  0  0  0  0  0
  1  2  1  0
  2  3  2  0
  3  4  1  0
  4  5  2  0
  5  6  1  0
  6  7  2  0
  7  8  1  0
  8  9  2  0
  9 10  1  0
 10 11  2  0
 11 12  1  0
 12 13  2  0
 13 14  1  0
 14 15  2  0
 15 16  1  0
 16 17  2  0
 17 18  1  0
 18 19  2  0
 19 20  1  0
 20 21  2  0
 21 22  1  0
 22 23  2  0
 23 24  1  0
 24 25  2  0
 25 26  1  0
 26 27  2  0
 27 28  1  0
 28 29  2  0
 29  2  1  0
M  END
>  <Title>  (844) 
idABGLgen8

$$$$

     RDKit          2D

 39 44  0  0  0  0  0  0  0  0999 V2000
    3.0000    0.0000    0.0000 C   0  0  0  0  0  0  0  0  0  0  0  0
    1.5000    0.0000    0.0000 C   0  0  0  0  0  0  0  0  0  0  0  0
    0.7500   -1.2990    0.0000 C   0  0  0  0  0  0  0  0  0  0  0  0
   -0.7500   -1.2990    0.0000 C   0  0  0  0  0  0  0  0  0  0  0  0
   -1.5000    0.0000    0.0000 C   0  0  0  0  0  0  0  0  0  0  0  0
   -3.0000    0.0000    0.0000 C   0  0  0  0  0  0  0  0  0  0  0  0
   -3.8817   -1.2135    0.0000 N   0  0  0  0  0  0  0  0  0  0  0  0
   -5.3083   -0.7500    0.0000 N   0  0  0  0  0  0  0  0  0  0  0  0
   -5.3083    0.7500    0.0000 N   0  0  0  0  0  0  0  0  0  0  0  0
   -3.8817    1.2135    0.0000 N   0  0  0  0  0  0  0  0  0  0  0  0
   -3.4182    2.6401    0.0000 C   0  0  0  0  0  0  0  0  0  0  0  0
   -1.9509    2.9520    0.0000 C   0  0  0  0  0  0  0  0  0  0  0  0
   -1.4874    4.3786    0.0000 C   0  0  0  0  0  0  0  0  0  0  0  0
   -2.4911    5.4933    0.0000 C   0  0  0  0  0  0  0  0  0  0  0  0
   -3.9583    5.1814    0.0000 C   0  0  0  0  0  0  0  0  0  0  0  0
   -4.4218    3.7548    0.0000 C   0  0  0  0  0  0  0  0  0  0  0  0
   -5.8891    3.4430    0.0000 C   0  0  0  0  0  0  0  0  0  0  0  0
   -6.8928    4.5577    0.0000 C   0  0  0  0  0  0  0  0  0  0  0  0
   -8.3600    4.2458    0.0000 C   0  0  0  0  0  0  0  0  0  0  0  0
   -8.8235    2.8192    0.0000 C   0  0  0  0  0  0  0  0  0  0  0  0
  -10.2907    2.5074    0.0000 C   0  0  0  0  0  0  0  0  0  0  0  0
  -10.7543    1.0808    0.0000 O   0  0  0  0  0  0  0  0  0  0  0  0
  -11.2944    3.6221    0.0000 N   0  0  0  0  0  0  0  0  0  0  0  0
  -12.7617    3.3102    0.0000 C   0  0  0  0  0  0  0  0  0  0  0  0
  -13.3718    1.9399    0.0000 N   0  0  0  0  0  0  0  0  0  0  0  0
  -14.8635    2.0967    0.0000 N   0  0  0  0  0  0  0  0  0  0  0  0
  -15.1754    3.5639    0.0000 N   0  0  0  0  0  0  0  0  0  0  0  0
  -13.8764    4.3139    0.0000 N   0  0  0  0  0  0  0  0  0  0  0  0
  -13.7196    5.8057    0.0000 C   0  0  0  0  0  0  0  0  0  0  0  0
  -12.3493    6.4158    0.0000 C   0  0  0  0  0  0  0  0  0  0  0  0
  -12.1925    7.9076    0.0000 C   0  0  0  0  0  0  0  0  0  0  0  0
  -13.4060    8.7893    0.0000 C   0  0  0  0  0  0  0  0  0  0  0  0
  -14.7763    8.1791    0.0000 C   0  0  0  0  0  0  0  0  0  0  0  0
  -14.9331    6.6874    0.0000 C   0  0  0  0  0  0  0  0  0  0  0  0
   -7.8198    1.7045    0.0000 C   0  0  0  0  0  0  0  0  0  0  0  0
   -6.3526    2.0164    0.0000 C   0  0  0  0  0  0  0  0  0  0  0  0
   -0.7500    1.2990    0.0000 C   0  0  0  0  0  0  0  0  0  0  0  0
    0.7500    1.2990    0.0000 C   0  0  0  0  0  0  0  0  0  0  0  0
    1.5000    2.5981    0.0000 C   0  0  0  0  0  0  0  0  0  0  0  0
  1  2  1  0
  2  3  2  0
  3  4  1  0
  4  5  2  0
  5  6  1  0
  6  7  2  0
  7  8  1  0
  8  9  2  0
  9 10  1  0
 10 11  1  0
 11 12  1  0
 12 13  1  0
 13 14  1  0
 14 15  1  0
 15 16  1  0
 16 17  1  0
 17 18  2  0
 18 19  1  0
 19 20  2  0
 20 21  1  0
 21 22  2  0
 21 23  1  0
 23 24  1  0
 24 25  2  0
 25 26  1  0
 26 27  2  0
 27 28  1  0
 28 29  1  0
 29 30  2  0
 30 31  1  0
 31 32  2  0
 32 33  1  0
 33 34  2  0
 20 35  1  0
 35 36  2  0
  5 37  1  0
 37 38  2  0
 38 39  1  0
 38  2  1  0
 10  6  1  0
 16 11  1  0
 36 17  1  0
 28 24  1  0
 34 29  1  0
M  END
>  <Title>  (845) 
idABGMgen8

$$$$

     RDKit          2D

 32 36  0  0  0  0  0  0  0  0999 V2000
    3.0000    0.0000    0.0000 C   0  0  0  0  0  0  0  0  0  0  0  0
    1.5000    0.0000    0.0000 C   0  0  0  0  0  0  0  0  0  0  0  0
    0.7500    1.2990    0.0000 C   0  0  0  0  0  0  0  0  0  0  0  0
   -0.7500    1.2990    0.0000 C   0  0  0  0  0  0  0  0  0  0  0  0
   -1.5000    0.0000    0.0000 C   0  0  0  0  0  0  0  0  0  0  0  0
   -3.0000    0.0000    0.0000 C   0  0  0  0  0  0  0  0  0  0  0  0
   -3.8817   -1.2135    0.0000 N   0  0  0  0  0  0  0  0  0  0  0  0
   -5.3083   -0.7500    0.0000 N   0  0  0  0  0  0  0  0  0  0  0  0
   -5.3083    0.7500    0.0000 N   0  0  0  0  0  0  0  0  0  0  0  0
   -3.8817    1.2135    0.0000 N   0  0  0  0  0  0  0  0  0  0  0  0
   -3.4182    2.6401    0.0000 C   0  0  0  0  0  0  0  0  0  0  0  0
   -1.9509    2.9520    0.0000 C   0  0  0  0  0  0  0  0  0  0  0  0
   -1.4874    4.3786    0.0000 C   0  0  0  0  0  0  0  0  0  0  0  0
   -2.4911    5.4933    0.0000 C   0  0  0  0  0  0  0  0  0  0  0  0
   -3.9583    5.1814    0.0000 C   0  0  0  0  0  0  0  0  0  0  0  0
   -4.4218    3.7548    0.0000 C   0  0  0  0  0  0  0  0  0  0  0  0
   -5.8891    3.4430    0.0000 C   0  0  0  0  0  0  0  0  0  0  0  0
   -6.4992    2.0726    0.0000 N   0  0  0  0  0  0  0  0  0  0  0  0
   -7.9910    2.2294    0.0000 N   0  0  0  0  0  0  0  0  0  0  0  0
   -8.3028    3.6967    0.0000 N   0  0  0  0  0  0  0  0  0  0  0  0
   -7.0038    4.4467    0.0000 N   0  0  0  0  0  0  0  0  0  0  0  0
   -6.8470    5.9384    0.0000 C   0  0  0  0  0  0  0  0  0  0  0  0
   -5.4767    6.5485    0.0000 C   0  0  0  0  0  0  0  0  0  0  0  0
   -5.3199    8.0403    0.0000 C   0  0  0  0  0  0  0  0  0  0  0  0
   -6.5334    8.9220    0.0000 C   0  0  0  0  0  0  0  0  0  0  0  0
   -6.3766   10.4138    0.0000 C   0  0  0  0  0  0  0  0  0  0  0  0
   -7.9037    8.3119    0.0000 C   0  0  0  0  0  0  0  0  0  0  0  0
   -9.1173    9.1936    0.0000 O   0  0  0  0  0  0  0  0  0  0  0  0
   -8.0605    6.8201    0.0000 N   0  0  0  0  0  0  0  0  0  0  0  0
   -0.7500   -1.2990    0.0000 C   0  0  0  0  0  0  0  0  0  0  0  0
   -1.5000   -2.5981    0.0000 O   0  0  0  0  0  0  0  0  0  0  0  0
    0.7500   -1.2990    0.0000 N   0  0  0  0  0  0  0  0  0  0  0  0
  1  2  1  0
  2  3  2  0
  3  4  1  0
  4  5  2  0
  5  6  1  0
  6  7  2  0
  7  8  1  0
  8  9  2  0
  9 10  1  0
 10 11  1  0
 11 12  1  0
 12 13  1  0
 13 14  1  0
 14 15  1  0
 15 16  1  0
 16 17  1  0
 17 18  2  0
 18 19  1  0
 19 20  2  0
 20 21  1  0
 21 22  1  0
 22 23  2  0
 23 24  1  0
 24 25  2  0
 25 26  1  0
 25 27  1  0
 27 28  2  0
 27 29  1  0
  5 30  1  0
 30 31  2  0
 30 32  1  0
 32  2  1  0
 10  6  1  0
 16 11  1  0
 21 17  1  0
 29 22  1  0
M  END
>  <Title>  (846) 
idABGNgen8

$$$$

     RDKit          2D

 46 46  0  0  0  0  0  0  0  0999 V2000
   12.7632   -1.2990    0.0000 C   0  0  0  0  0  0  0  0  0  0  0  0
   12.0132    0.0000    0.0000 O   0  0  0  0  0  0  0  0  0  0  0  0
   10.5132    0.0000    0.0000 C   0  0  0  0  0  0  0  0  0  0  0  0
   10.4061   -1.4962    0.0000 C   0  0  0  0  0  0  0  0  0  0  0  0
   10.0873   -2.9619    0.0000 C   0  0  0  0  0  0  0  0  0  0  0  0
    9.5631   -4.3673    0.0000 C   0  0  0  0  0  0  0  0  0  0  0  0
    8.8442   -5.6838    0.0000 C   0  0  0  0  0  0  0  0  0  0  0  0
    7.9453   -6.8847    0.0000 C   0  0  0  0  0  0  0  0  0  0  0  0
    6.8847   -7.9453    0.0000 C   0  0  0  0  0  0  0  0  0  0  0  0
    5.6838   -8.8442    0.0000 C   0  0  0  0  0  0  0  0  0  0  0  0
    4.3673   -9.5631    0.0000 C   0  0  0  0  0  0  0  0  0  0  0  0
    2.9619  -10.0873    0.0000 C   0  0  0  0  0  0  0  0  0  0  0  0
    1.4962  -10.4061    0.0000 C   0  0  0  0  0  0  0  0  0  0  0  0
   -0.0000  -10.5132    0.0000 C   0  0  0  0  0  0  0  0  0  0  0  0
   -1.4962  -10.4061    0.0000 C   0  0  0  0  0  0  0  0  0  0  0  0
   -2.9619  -10.0873    0.0000 C   0  0  0  0  0  0  0  0  0  0  0  0
   -4.3673   -9.5631    0.0000 C   0  0  0  0  0  0  0  0  0  0  0  0
   -5.6838   -8.8442    0.0000 C   0  0  0  0  0  0  0  0  0  0  0  0
   -6.8847   -7.9453    0.0000 C   0  0  0  0  0  0  0  0  0  0  0  0
   -7.9453   -6.8847    0.0000 C   0  0  0  0  0  0  0  0  0  0  0  0
   -8.8442   -5.6838    0.0000 C   0  0  0  0  0  0  0  0  0  0  0  0
   -9.5631   -4.3673    0.0000 C   0  0  0  0  0  0  0  0  0  0  0  0
  -10.0873   -2.9619    0.0000 C   0  0  0  0  0  0  0  0  0  0  0  0
  -10.4061   -1.4962    0.0000 C   0  0  0  0  0  0  0  0  0  0  0  0
  -10.5132    0.0000    0.0000 C   0  0  0  0  0  0  0  0  0  0  0  0
  -10.4061    1.4962    0.0000 C   0  0  0  0  0  0  0  0  0  0  0  0
  -10.0873    2.9619    0.0000 C   0  0  0  0  0  0  0  0  0  0  0  0
   -9.5631    4.3673    0.0000 C   0  0  0  0  0  0  0  0  0  0  0  0
   -8.8442    5.6838    0.0000 C   0  0  0  0  0  0  0  0  0  0  0  0
   -7.9453    6.8847    0.0000 C   0  0  0  0  0  0  0  0  0  0  0  0
   -6.8847    7.9453    0.0000 C   0  0  0  0  0  0  0  0  0  0  0  0
   -5.6838    8.8442    0.0000 C   0  0  0  0  0  0  0  0  0  0  0  0
   -4.3673    9.5631    0.0000 C   0  0  0  0  0  0  0  0  0  0  0  0
   -2.9619   10.0873    0.0000 C   0  0  0  0  0  0  0  0  0  0  0  0
   -1.4962   10.4061    0.0000 C   0  0  0  0  0  0  0  0  0  0  0  0
    0.0000   10.5132    0.0000 C   0  0  0  0  0  0  0  0  0  0  0  0
    1.4962   10.4061    0.0000 C   0  0  0  0  0  0  0  0  0  0  0  0
    2.9619   10.0873    0.0000 C   0  0  0  0  0  0  0  0  0  0  0  0
    4.3673    9.5631    0.0000 C   0  0  0  0  0  0  0  0  0  0  0  0
    5.6838    8.8442    0.0000 C   0  0  0  0  0  0  0  0  0  0  0  0
    6.8847    7.9453    0.0000 C   0  0  0  0  0  0  0  0  0  0  0  0
    7.9453    6.8847    0.0000 C   0  0  0  0  0  0  0  0  0  0  0  0
    8.8442    5.6838    0.0000 C   0  0  0  0  0  0  0  0  0  0  0  0
    9.5631    4.3673    0.0000 C   0  0  0  0  0  0  0  0  0  0  0  0
   10.0873    2.9619    0.0000 C   0  0  0  0  0  0  0  0  0  0  0  0
   10.4061    1.4962    0.0000 C   0  0  0  0  0  0  0  0  0  0  0  0
  1  2  1  0
  2  3  1  0
  3  4  2  0
  4  5  1  0
  5  6  2  0
  6  7  1  0
  7  8  2  0
  8  9  1  0
  9 10  2  0
 10 11  1  0
 11 12  2  0
 12 13  1  0
 13 14  2  0
 14 15  1  0
 15 16  2  0
 16 17  1  0
 17 18  2  0
 18 19  1  0
 19 20  2  0
 20 21  1  0
 21 22  2  0
 22 23  1  0
 23 24  2  0
 24 25  1  0
 25 26  2  0
 26 27  1  0
 27 28  2  0
 28 29  1  0
 29 30  2  0
 30 31  1  0
 31 32  2  0
 32 33  1  0
 33 34  2  0
 34 35  1  0
 35 36  2  0
 36 37  1  0
 37 38  2  0
 38 39  1  0
 39 40  2  0
 40 41  1  0
 41 42  2  0
 42 43  1  0
 43 44  2  0
 44 45  1  0
 45 46  2  0
 46  3  1  0
M  END
>  <Title>  (847) 
idABGOgen8

$$$$

     RDKit          2D

 20 20  0  0  0  0  0  0  0  0999 V2000
    5.8191    0.0000    0.0000 C   0  0  0  0  0  0  0  0  0  0  0  0
    4.3191    0.0000    0.0000 C   0  0  0  0  0  0  0  0  0  0  0  0
    4.0586   -1.4772    0.0000 C   0  0  0  0  0  0  0  0  0  0  0  0
    3.3086   -2.7762    0.0000 C   0  0  0  0  0  0  0  0  0  0  0  0
    2.1595   -3.7404    0.0000 C   0  0  0  0  0  0  0  0  0  0  0  0
    0.7500   -4.2535    0.0000 C   0  0  0  0  0  0  0  0  0  0  0  0
   -0.7500   -4.2535    0.0000 C   0  0  0  0  0  0  0  0  0  0  0  0
   -2.1595   -3.7404    0.0000 C   0  0  0  0  0  0  0  0  0  0  0  0
   -3.3086   -2.7762    0.0000 C   0  0  0  0  0  0  0  0  0  0  0  0
   -4.0586   -1.4772    0.0000 C   0  0  0  0  0  0  0  0  0  0  0  0
   -4.3191    0.0000    0.0000 C   0  0  0  0  0  0  0  0  0  0  0  0
   -4.0586    1.4772    0.0000 C   0  0  0  0  0  0  0  0  0  0  0  0
   -3.3086    2.7762    0.0000 C   0  0  0  0  0  0  0  0  0  0  0  0
   -2.1595    3.7404    0.0000 C   0  0  0  0  0  0  0  0  0  0  0  0
   -0.7500    4.2535    0.0000 C   0  0  0  0  0  0  0  0  0  0  0  0
   -1.0105    5.7307    0.0000 F   0  0  0  0  0  0  0  0  0  0  0  0
    0.7500    4.2535    0.0000 C   0  0  0  0  0  0  0  0  0  0  0  0
    2.1595    3.7404    0.0000 C   0  0  0  0  0  0  0  0  0  0  0  0
    3.3086    2.7762    0.0000 C   0  0  0  0  0  0  0  0  0  0  0  0
    4.0586    1.4772    0.0000 C   0  0  0  0  0  0  0  0  0  0  0  0
  1  2  1  0
  2  3  2  0
  3  4  1  0
  4  5  2  0
  5  6  1  0
  6  7  2  0
  7  8  1  0
  8  9  2  0
  9 10  1  0
 10 11  2  0
 11 12  1  0
 12 13  2  0
 13 14  1  0
 14 15  2  0
 15 16  1  0
 15 17  1  0
 17 18  2  0
 18 19  1  0
 19 20  2  0
 20  2  1  0
M  END
>  <Title>  (848) 
idABGPgen8

$$$$

     RDKit          2D

 42 48  0  0  0  0  0  0  0  0999 V2000
  -10.1624    4.2767    0.0000 C   0  0  0  0  0  0  0  0  0  0  0  0
   -8.9488    3.3950    0.0000 C   0  0  0  0  0  0  0  0  0  0  0  0
   -9.1056    1.9033    0.0000 C   0  0  0  0  0  0  0  0  0  0  0  0
   -7.8921    1.0216    0.0000 C   0  0  0  0  0  0  0  0  0  0  0  0
   -6.5218    1.6317    0.0000 C   0  0  0  0  0  0  0  0  0  0  0  0
   -5.3083    0.7500    0.0000 C   0  0  0  0  0  0  0  0  0  0  0  0
   -5.3083   -0.7500    0.0000 N   0  0  0  0  0  0  0  0  0  0  0  0
   -3.8817   -1.2135    0.0000 N   0  0  0  0  0  0  0  0  0  0  0  0
   -3.0000    0.0000    0.0000 N   0  0  0  0  0  0  0  0  0  0  0  0
   -3.8817    1.2135    0.0000 N   0  0  0  0  0  0  0  0  0  0  0  0
   -3.4182    2.6401    0.0000 C   0  0  0  0  0  0  0  0  0  0  0  0
   -4.2998    3.8536    0.0000 C   0  0  0  0  0  0  0  0  0  0  0  0
   -3.4182    5.0672    0.0000 C   0  0  0  0  0  0  0  0  0  0  0  0
   -1.9916    4.6036    0.0000 C   0  0  0  0  0  0  0  0  0  0  0  0
   -0.7780    5.4853    0.0000 C   0  0  0  0  0  0  0  0  0  0  0  0
   -0.7780    6.9853    0.0000 N   0  0  0  0  0  0  0  0  0  0  0  0
    0.6485    7.4488    0.0000 N   0  0  0  0  0  0  0  0  0  0  0  0
    1.5302    6.2353    0.0000 N   0  0  0  0  0  0  0  0  0  0  0  0
    0.6485    5.0218    0.0000 N   0  0  0  0  0  0  0  0  0  0  0  0
    1.1121    3.5952    0.0000 C   0  0  0  0  0  0  0  0  0  0  0  0
    0.1084    2.4805    0.0000 C   0  0  0  0  0  0  0  0  0  0  0  0
    0.5719    1.0539    0.0000 C   0  0  0  0  0  0  0  0  0  0  0  0
    2.0391    0.7420    0.0000 C   0  0  0  0  0  0  0  0  0  0  0  0
    2.5026   -0.6846    0.0000 C   0  0  0  0  0  0  0  0  0  0  0  0
    1.4989   -1.7993    0.0000 C   0  0  0  0  0  0  0  0  0  0  0  0
    1.9625   -3.2259    0.0000 C   0  0  0  0  0  0  0  0  0  0  0  0
    3.4297   -3.5377    0.0000 C   0  0  0  0  0  0  0  0  0  0  0  0
    4.4334   -2.4230    0.0000 C   0  0  0  0  0  0  0  0  0  0  0  0
    3.9699   -0.9964    0.0000 C   0  0  0  0  0  0  0  0  0  0  0  0
    3.0428    1.8568    0.0000 C   0  0  0  0  0  0  0  0  0  0  0  0
    2.5793    3.2833    0.0000 C   0  0  0  0  0  0  0  0  0  0  0  0
    3.5830    4.3981    0.0000 C   0  0  0  0  0  0  0  0  0  0  0  0
    5.0502    4.0862    0.0000 C   0  0  0  0  0  0  0  0  0  0  0  0
    6.0539    5.2009    0.0000 C   0  0  0  0  0  0  0  0  0  0  0  0
    5.5904    6.6275    0.0000 C   0  0  0  0  0  0  0  0  0  0  0  0
    4.1232    6.9394    0.0000 C   0  0  0  0  0  0  0  0  0  0  0  0
    3.1195    5.8246    0.0000 C   0  0  0  0  0  0  0  0  0  0  0  0
   -1.9916    3.1036    0.0000 C   0  0  0  0  0  0  0  0  0  0  0  0
   -0.7780    2.2220    0.0000 O   0  0  0  0  0  0  0  0  0  0  0  0
   -6.3650    3.1235    0.0000 N   0  0  0  0  0  0  0  0  0  0  0  0
   -7.5785    4.0051    0.0000 C   0  0  0  0  0  0  0  0  0  0  0  0
   -7.4217    5.4969    0.0000 O   0  0  0  0  0  0  0  0  0  0  0  0
  1  2  1  0
  2  3  2  0
  3  4  1  0
  4  5  2  0
  5  6  1  0
  6  7  2  0
  7  8  1  0
  8  9  2  0
  9 10  1  0
 10 11  1  0
 11 12  2  0
 12 13  1  0
 13 14  2  0
 14 15  1  0
 15 16  2  0
 16 17  1  0
 17 18  2  0
 18 19  1  0
 19 20  1  0
 20 21  2  0
 21 22  1  0
 22 23  2  0
 23 24  1  0
 24 25  2  0
 25 26  1  0
 26 27  2  0
 27 28  1  0
 28 29  2  0
 23 30  1  0
 30 31  2  0
 31 32  1  0
 32 33  2  0
 33 34  1  0
 34 35  2  0
 35 36  1  0
 36 37  2  0
 14 38  1  0
 38 39  2  0
  5 40  1  0
 40 41  1  0
 41 42  2  0
 41  2  1  0
 10  6  1  0
 38 11  1  0
 19 15  1  0
 31 20  1  0
 37 32  1  0
 29 24  1  0
M  END
>  <Title>  (849) 
idABGQgen8

$$$$

     RDKit          2D

 61 69  0  0  0  0  0  0  0  0999 V2000
    3.7500   -1.2990    0.0000 C   0  0  0  0  0  0  0  0  0  0  0  0
    3.0000    0.0000    0.0000 O   0  0  0  0  0  0  0  0  0  0  0  0
    1.5000    0.0000    0.0000 C   0  0  0  0  0  0  0  0  0  0  0  0
    0.7500   -1.2990    0.0000 C   0  0  0  0  0  0  0  0  0  0  0  0
   -0.7500   -1.2990    0.0000 C   0  0  0  0  0  0  0  0  0  0  0  0
   -1.5000    0.0000    0.0000 C   0  0  0  0  0  0  0  0  0  0  0  0
   -3.0000    0.0000    0.0000 C   0  0  0  0  0  0  0  0  0  0  0  0
   -3.7500   -1.2990    0.0000 O   0  0  0  0  0  0  0  0  0  0  0  0
   -3.7500    1.2990    0.0000 N   0  0  0  0  0  0  0  0  0  0  0  0
   -5.2500    1.2990    0.0000 C   0  0  0  0  0  0  0  0  0  0  0  0
   -6.1317    0.0855    0.0000 N   0  0  0  0  0  0  0  0  0  0  0  0
   -7.5583    0.5490    0.0000 N   0  0  0  0  0  0  0  0  0  0  0  0
   -7.5583    2.0490    0.0000 N   0  0  0  0  0  0  0  0  0  0  0  0
   -6.1317    2.5126    0.0000 N   0  0  0  0  0  0  0  0  0  0  0  0
   -5.6682    3.9391    0.0000 C   0  0  0  0  0  0  0  0  0  0  0  0
   -4.2009    4.2510    0.0000 C   0  0  0  0  0  0  0  0  0  0  0  0
   -3.7374    5.6776    0.0000 C   0  0  0  0  0  0  0  0  0  0  0  0
   -4.7411    6.7923    0.0000 C   0  0  0  0  0  0  0  0  0  0  0  0
   -4.2776    8.2189    0.0000 C   0  0  0  0  0  0  0  0  0  0  0  0
   -5.1593    9.4324    0.0000 N   0  0  0  0  0  0  0  0  0  0  0  0
   -4.2776   10.6460    0.0000 N   0  0  0  0  0  0  0  0  0  0  0  0
   -2.8510   10.1824    0.0000 N   0  0  0  0  0  0  0  0  0  0  0  0
   -2.8510    8.6824    0.0000 N   0  0  0  0  0  0  0  0  0  0  0  0
   -1.6375    7.8008    0.0000 C   0  0  0  0  0  0  0  0  0  0  0  0
   -1.7943    6.3090    0.0000 C   0  0  0  0  0  0  0  0  0  0  0  0
   -0.5807    5.4273    0.0000 C   0  0  0  0  0  0  0  0  0  0  0  0
    0.7896    6.0374    0.0000 C   0  0  0  0  0  0  0  0  0  0  0  0
    2.0031    5.1557    0.0000 C   0  0  0  0  0  0  0  0  0  0  0  0
    3.3734    5.7658    0.0000 O   0  0  0  0  0  0  0  0  0  0  0  0
    1.8463    3.6639    0.0000 N   0  0  0  0  0  0  0  0  0  0  0  0
    3.0598    2.7823    0.0000 O   0  0  0  0  0  0  0  0  0  0  0  0
    0.9464    7.5292    0.0000 C   0  0  0  0  0  0  0  0  0  0  0  0
   -0.2671    8.4109    0.0000 C   0  0  0  0  0  0  0  0  0  0  0  0
   -6.2083    6.4805    0.0000 C   0  0  0  0  0  0  0  0  0  0  0  0
   -6.6718    5.0539    0.0000 C   0  0  0  0  0  0  0  0  0  0  0  0
   -8.1391    4.7420    0.0000 C   0  0  0  0  0  0  0  0  0  0  0  0
   -8.6026    3.3154    0.0000 C   0  0  0  0  0  0  0  0  0  0  0  0
  -10.0698    3.0035    0.0000 C   0  0  0  0  0  0  0  0  0  0  0  0
  -11.0735    4.1183    0.0000 C   0  0  0  0  0  0  0  0  0  0  0  0
  -12.5407    3.8064    0.0000 C   0  0  0  0  0  0  0  0  0  0  0  0
  -13.6555    4.8101    0.0000 N   0  0  0  0  0  0  0  0  0  0  0  0
  -14.9545    4.0601    0.0000 N   0  0  0  0  0  0  0  0  0  0  0  0
  -14.6426    2.5929    0.0000 N   0  0  0  0  0  0  0  0  0  0  0  0
  -13.1508    2.4361    0.0000 N   0  0  0  0  0  0  0  0  0  0  0  0
  -12.4008    1.1370    0.0000 C   0  0  0  0  0  0  0  0  0  0  0  0
  -10.9008    1.1370    0.0000 C   0  0  0  0  0  0  0  0  0  0  0  0
  -10.1508   -0.1620    0.0000 C   0  0  0  0  0  0  0  0  0  0  0  0
  -10.9008   -1.4610    0.0000 C   0  0  0  0  0  0  0  0  0  0  0  0
  -12.4008   -1.4610    0.0000 C   0  0  0  0  0  0  0  0  0  0  0  0
  -13.1508   -0.1620    0.0000 C   0  0  0  0  0  0  0  0  0  0  0  0
  -10.6100    5.5448    0.0000 C   0  0  0  0  0  0  0  0  0  0  0  0
   -9.1428    5.8567    0.0000 C   0  0  0  0  0  0  0  0  0  0  0  0
   -8.6792    7.2833    0.0000 C   0  0  0  0  0  0  0  0  0  0  0  0
   -9.6829    8.3980    0.0000 C   0  0  0  0  0  0  0  0  0  0  0  0
   -9.2194    9.8246    0.0000 C   0  0  0  0  0  0  0  0  0  0  0  0
   -7.7522   10.1365    0.0000 C   0  0  0  0  0  0  0  0  0  0  0  0
   -7.2887   11.5631    0.0000 C   0  0  0  0  0  0  0  0  0  0  0  0
   -6.7485    9.0218    0.0000 C   0  0  0  0  0  0  0  0  0  0  0  0
   -7.2120    7.5952    0.0000 C   0  0  0  0  0  0  0  0  0  0  0  0
   -0.7500    1.2990    0.0000 C   0  0  0  0  0  0  0  0  0  0  0  0
    0.7500    1.2990    0.0000 C   0  0  0  0  0  0  0  0  0  0  0  0
  1  2  1  0
  2  3  1  0
  3  4  2  0
  4  5  1  0
  5  6  2  0
  6  7  1  0
  7  8  2  0
  7  9  1  0
  9 10  1  0
 10 11  2  0
 11 12  1  0
 12 13  2  0
 13 14  1  0
 14 15  1  0
 15 16  2  0
 16 17  1  0
 17 18  2  0
 18 19  1  0
 19 20  2  0
 20 21  1  0
 21 22  2  0
 22 23  1  0
 23 24  1  0
 24 25  2  0
 25 26  1  0
 26 27  2  0
 27 28  1  0
 28 29  2  0
 28 30  1  0
 30 31  1  0
 27 32  1  0
 32 33  2  0
 18 34  1  0
 34 35  2  0
 35 36  1  0
 36 37  2  0
 37 38  1  0
 38 39  2  0
 39 40  1  0
 40 41  2  0
 41 42  1  0
 42 43  2  0
 43 44  1  0
 44 45  1  0
 45 46  2  0
 46 47  1  0
 47 48  2  0
 48 49  1  0
 49 50  2  0
 39 51  1  0
 51 52  2  0
 52 53  1  0
 53 54  2  0
 54 55  1  0
 55 56  2  0
 56 57  1  0
 56 58  1  0
 58 59  2  0
  6 60  1  0
 60 61  2  0
 61  3  1  0
 14 10  1  0
 35 15  1  0
 52 36  1  0
 59 53  1  0
 23 19  1  0
 33 24  1  0
 44 40  1  0
 50 45  1  0
M  END
>  <Title>  (850) 
idABGRgen8

$$$$

     RDKit          2D

 61 69  0  0  0  0  0  0  0  0999 V2000
   -0.6877   14.5870    0.0000 C   0  0  0  0  0  0  0  0  0  0  0  0
   -0.2241   13.1604    0.0000 C   0  0  0  0  0  0  0  0  0  0  0  0
    1.2431   12.8486    0.0000 C   0  0  0  0  0  0  0  0  0  0  0  0
    1.7066   11.4220    0.0000 C   0  0  0  0  0  0  0  0  0  0  0  0
    0.7029   10.3073    0.0000 C   0  0  0  0  0  0  0  0  0  0  0  0
    1.1664    8.8807    0.0000 C   0  0  0  0  0  0  0  0  0  0  0  0
    2.5930    8.4172    0.0000 N   0  0  0  0  0  0  0  0  0  0  0  0
    2.5930    6.9172    0.0000 N   0  0  0  0  0  0  0  0  0  0  0  0
    1.1664    6.4536    0.0000 N   0  0  0  0  0  0  0  0  0  0  0  0
    0.2848    7.6672    0.0000 N   0  0  0  0  0  0  0  0  0  0  0  0
   -1.2152    7.6672    0.0000 C   0  0  0  0  0  0  0  0  0  0  0  0
   -2.0969    8.8807    0.0000 N   0  0  0  0  0  0  0  0  0  0  0  0
   -3.5235    8.4172    0.0000 N   0  0  0  0  0  0  0  0  0  0  0  0
   -3.5235    6.9172    0.0000 N   0  0  0  0  0  0  0  0  0  0  0  0
   -2.0969    6.4536    0.0000 N   0  0  0  0  0  0  0  0  0  0  0  0
   -1.6334    5.0270    0.0000 C   0  0  0  0  0  0  0  0  0  0  0  0
   -0.1343    4.9747    0.0000 C   0  0  0  0  0  0  0  0  0  0  0  0
    0.9804    3.9710    0.0000 C   0  0  0  0  0  0  0  0  0  0  0  0
    1.1892    2.4856    0.0000 C   0  0  0  0  0  0  0  0  0  0  0  0
    2.6564    2.1737    0.0000 C   0  0  0  0  0  0  0  0  0  0  0  0
    3.1199    0.7471    0.0000 C   0  0  0  0  0  0  0  0  0  0  0  0
    4.5871    0.4353    0.0000 C   0  0  0  0  0  0  0  0  0  0  0  0
    5.5908    1.5500    0.0000 C   0  0  0  0  0  0  0  0  0  0  0  0
    7.0581    1.2381    0.0000 C   0  0  0  0  0  0  0  0  0  0  0  0
    8.0618    2.3528    0.0000 O   0  0  0  0  0  0  0  0  0  0  0  0
    7.5216   -0.1885    0.0000 N   0  0  0  0  0  0  0  0  0  0  0  0
    8.9888   -0.5003    0.0000 O   0  0  0  0  0  0  0  0  0  0  0  0
    5.1273    2.9766    0.0000 C   0  0  0  0  0  0  0  0  0  0  0  0
    3.6601    3.2884    0.0000 N   0  0  0  0  0  0  0  0  0  0  0  0
    0.3943    1.2135    0.0000 C   0  0  0  0  0  0  0  0  0  0  0  0
    1.2760    0.0000    0.0000 N   0  0  0  0  0  0  0  0  0  0  0  0
    0.3943   -1.2135    0.0000 N   0  0  0  0  0  0  0  0  0  0  0  0
   -1.0323   -0.7500    0.0000 N   0  0  0  0  0  0  0  0  0  0  0  0
   -1.0323    0.7500    0.0000 N   0  0  0  0  0  0  0  0  0  0  0  0
   -2.4231    1.3119    0.0000 C   0  0  0  0  0  0  0  0  0  0  0  0
   -3.8248    0.7779    0.0000 C   0  0  0  0  0  0  0  0  0  0  0  0
   -5.1163    1.5408    0.0000 C   0  0  0  0  0  0  0  0  0  0  0  0
   -5.3250    3.0262    0.0000 C   0  0  0  0  0  0  0  0  0  0  0  0
   -6.7539    3.4826    0.0000 C   0  0  0  0  0  0  0  0  0  0  0  0
   -7.8636    2.4733    0.0000 C   0  0  0  0  0  0  0  0  0  0  0  0
   -9.2925    2.9297    0.0000 C   0  0  0  0  0  0  0  0  0  0  0  0
   -9.6117    4.3954    0.0000 C   0  0  0  0  0  0  0  0  0  0  0  0
   -8.5020    5.4046    0.0000 C   0  0  0  0  0  0  0  0  0  0  0  0
   -7.0731    4.9482    0.0000 C   0  0  0  0  0  0  0  0  0  0  0  0
   -4.2938    4.1155    0.0000 C   0  0  0  0  0  0  0  0  0  0  0  0
   -2.8154    4.1036    0.0000 C   0  0  0  0  0  0  0  0  0  0  0  0
   -3.1273    2.6363    0.0000 C   0  0  0  0  0  0  0  0  0  0  0  0
   -4.6127    2.4276    0.0000 O   0  0  0  0  0  0  0  0  0  0  0  0
   -0.7643   10.6191    0.0000 N   0  0  0  0  0  0  0  0  0  0  0  0
   -1.2278   12.0457    0.0000 C   0  0  0  0  0  0  0  0  0  0  0  0
   -2.6950   12.3576    0.0000 C   0  0  0  0  0  0  0  0  0  0  0  0
   -3.1586   13.7842    0.0000 C   0  0  0  0  0  0  0  0  0  0  0  0
   -4.6258   14.0960    0.0000 C   0  0  0  0  0  0  0  0  0  0  0  0
   -5.6295   12.9813    0.0000 C   0  0  0  0  0  0  0  0  0  0  0  0
   -7.0967   13.2932    0.0000 C   0  0  0  0  0  0  0  0  0  0  0  0
   -7.5602   14.7198    0.0000 O   0  0  0  0  0  0  0  0  0  0  0  0
   -8.1004   12.1785    0.0000 N   0  0  0  0  0  0  0  0  0  0  0  0
   -9.5676   12.4903    0.0000 O   0  0  0  0  0  0  0  0  0  0  0  0
   -5.1660   11.5547    0.0000 N   0  0  0  0  0  0  0  0  0  0  0  0
   -3.6987   11.2429    0.0000 C   0  0  0  0  0  0  0  0  0  0  0  0
   -3.2352    9.8163    0.0000 O   0  0  0  0  0  0  0  0  0  0  0  0
  1  2  1  0
  2  3  2  0
  3  4  1  0
  4  5  2  0
  5  6  1  0
  6  7  2  0
  7  8  1  0
  8  9  2  0
  9 10  1  0
 10 11  1  0
 11 12  2  0
 12 13  1  0
 13 14  2  0
 14 15  1  0
 15 16  1  0
 16 17  2  0
 17 18  1  0
 18 19  2  0
 19 20  1  0
 20 21  2  0
 21 22  1  0
 22 23  2  0
 23 24  1  0
 24 25  2  0
 24 26  1  0
 26 27  1  0
 23 28  1  0
 28 29  1  0
 19 30  1  0
 30 31  2  0
 31 32  1  0
 32 33  2  0
 33 34  1  0
 34 35  1  0
 35 36  2  0
 36 37  1  0
 37 38  2  0
 38 39  1  0
 39 40  2  0
 40 41  1  0
 41 42  2  0
 42 43  1  0
 43 44  2  0
 38 45  1  0
 45 46  2  0
 46 47  1  0
 47 48  2  0
  5 49  1  0
 49 50  2  0
 50 51  1  0
 51 52  2  0
 52 53  1  0
 53 54  2  0
 54 55  1  0
 55 56  2  0
 55 57  1  0
 57 58  1  0
 54 59  1  0
 59 60  1  0
 60 61  2  0
 50  2  1  0
 60 51  1  0
 10  6  1  0
 15 11  1  0
 46 16  1  0
 29 20  1  0
 34 30  1  0
 47 35  1  0
 44 39  1  0
M  END
>  <Title>  (851) 
idABGSgen8

$$$$

     RDKit          2D

 10 11  0  0  0  0  0  0  0  0999 V2000
   -2.9499    4.2246    0.0000 O   0  0  0  0  0  0  0  0  0  0  0  0
   -1.8351    3.2209    0.0000 C   0  0  0  0  0  0  0  0  0  0  0  0
   -0.4086    3.6844    0.0000 C   0  0  0  0  0  0  0  0  0  0  0  0
    0.7062    2.6807    0.0000 C   0  0  0  0  0  0  0  0  0  0  0  0
    0.3943    1.2135    0.0000 C   0  0  0  0  0  0  0  0  0  0  0  0
    1.2760    0.0000    0.0000 C   0  0  0  0  0  0  0  0  0  0  0  0
    0.3943   -1.2135    0.0000 C   0  0  0  0  0  0  0  0  0  0  0  0
   -1.0323   -0.7500    0.0000 C   0  0  0  0  0  0  0  0  0  0  0  0
   -1.0323    0.7500    0.0000 C   0  0  0  0  0  0  0  0  0  0  0  0
   -2.1470    1.7537    0.0000 C   0  0  0  0  0  0  0  0  0  0  0  0
  1  2  1  0
  2  3  2  0
  3  4  1  0
  4  5  2  0
  5  6  1  0
  6  7  2  0
  7  8  1  0
  8  9  2  0
  9 10  1  0
 10  2  1  0
  9  5  1  0
M  END
>  <Title>  (852) 
idABGTgen8

$$$$

     RDKit          2D

 14 14  0  0  0  0  0  0  0  0999 V2000
    4.6771   -1.2990    0.0000 C   0  0  0  0  0  0  0  0  0  0  0  0
    3.9271    0.0000    0.0000 O   0  0  0  0  0  0  0  0  0  0  0  0
    2.4271    0.0000    0.0000 C   0  0  0  0  0  0  0  0  0  0  0  0
    1.9635   -1.4266    0.0000 C   0  0  0  0  0  0  0  0  0  0  0  0
    0.7500   -2.3083    0.0000 C   0  0  0  0  0  0  0  0  0  0  0  0
   -0.7500   -2.3083    0.0000 C   0  0  0  0  0  0  0  0  0  0  0  0
   -1.9635   -1.4266    0.0000 C   0  0  0  0  0  0  0  0  0  0  0  0
   -2.4271    0.0000    0.0000 C   0  0  0  0  0  0  0  0  0  0  0  0
   -1.9635    1.4266    0.0000 C   0  0  0  0  0  0  0  0  0  0  0  0
   -0.7500    2.3083    0.0000 C   0  0  0  0  0  0  0  0  0  0  0  0
   -1.2135    3.7348    0.0000 O   0  0  0  0  0  0  0  0  0  0  0  0
    0.7500    2.3083    0.0000 C   0  0  0  0  0  0  0  0  0  0  0  0
    1.9635    1.4266    0.0000 C   0  0  0  0  0  0  0  0  0  0  0  0
    3.1771    2.3083    0.0000 C   0  0  0  0  0  0  0  0  0  0  0  0
  1  2  1  0
  2  3  1  0
  3  4  2  0
  4  5  1  0
  5  6  2  0
  6  7  1  0
  7  8  2  0
  8  9  1  0
  9 10  2  0
 10 11  1  0
 10 12  1  0
 12 13  2  0
 13 14  1  0
 13  3  1  0
M  END
>  <Title>  (853) 
idABGUgen8

$$$$

     RDKit          2D

 14 14  0  0  0  0  0  0  0  0999 V2000
    4.3978    0.0000    0.0000 C   0  0  0  0  0  0  0  0  0  0  0  0
    2.8978    0.0000    0.0000 C   0  0  0  0  0  0  0  0  0  0  0  0
    2.5095   -1.4489    0.0000 C   0  0  0  0  0  0  0  0  0  0  0  0
    1.4489   -2.5095    0.0000 C   0  0  0  0  0  0  0  0  0  0  0  0
   -0.0000   -2.8978    0.0000 C   0  0  0  0  0  0  0  0  0  0  0  0
   -1.4489   -2.5095    0.0000 C   0  0  0  0  0  0  0  0  0  0  0  0
   -2.5095   -1.4489    0.0000 C   0  0  0  0  0  0  0  0  0  0  0  0
   -2.8978    0.0000    0.0000 C   0  0  0  0  0  0  0  0  0  0  0  0
   -2.5095    1.4489    0.0000 C   0  0  0  0  0  0  0  0  0  0  0  0
   -1.4489    2.5095    0.0000 C   0  0  0  0  0  0  0  0  0  0  0  0
    0.0000    2.8978    0.0000 C   0  0  0  0  0  0  0  0  0  0  0  0
    0.0000    4.3978    0.0000 C   0  0  0  0  0  0  0  0  0  0  0  0
    1.4489    2.5095    0.0000 C   0  0  0  0  0  0  0  0  0  0  0  0
    2.5095    1.4489    0.0000 C   0  0  0  0  0  0  0  0  0  0  0  0
  1  2  1  0
  2  3  2  0
  3  4  1  0
  4  5  2  0
  5  6  1  0
  6  7  2  0
  7  8  1  0
  8  9  2  0
  9 10  1  0
 10 11  2  0
 11 12  1  0
 11 13  1  0
 13 14  2  0
 14  2  1  0
M  END
>  <Title>  (854) 
idABGVgen8

$$$$

     RDKit          2D

 19 20  0  0  0  0  0  0  0  0999 V2000
   -0.7500   -6.4952    0.0000 O   0  0  0  0  0  0  0  0  0  0  0  0
    0.7500   -6.4952    0.0000 C   0  0  0  0  0  0  0  0  0  0  0  0
    1.5000   -5.1962    0.0000 N   0  0  0  0  0  0  0  0  0  0  0  0
    0.7500   -3.8971    0.0000 C   0  0  0  0  0  0  0  0  0  0  0  0
    1.5000   -2.5981    0.0000 C   0  0  0  0  0  0  0  0  0  0  0  0
    0.7500   -1.2990    0.0000 C   0  0  0  0  0  0  0  0  0  0  0  0
    1.5000    0.0000    0.0000 C   0  0  0  0  0  0  0  0  0  0  0  0
    0.7500    1.2990    0.0000 C   0  0  0  0  0  0  0  0  0  0  0  0
   -0.7500    1.2990    0.0000 C   0  0  0  0  0  0  0  0  0  0  0  0
   -1.5000    0.0000    0.0000 C   0  0  0  0  0  0  0  0  0  0  0  0
   -0.7500   -1.2990    0.0000 C   0  0  0  0  0  0  0  0  0  0  0  0
    1.5000   -7.7942    0.0000 C   0  0  0  0  0  0  0  0  0  0  0  0
    0.7500   -9.0933    0.0000 C   0  0  0  0  0  0  0  0  0  0  0  0
    1.5000  -10.3923    0.0000 C   0  0  0  0  0  0  0  0  0  0  0  0
    3.0000  -10.3923    0.0000 C   0  0  0  0  0  0  0  0  0  0  0  0
    3.7500  -11.6913    0.0000 C   0  0  0  0  0  0  0  0  0  0  0  0
    3.0000  -12.9904    0.0000 O   0  0  0  0  0  0  0  0  0  0  0  0
    3.7500   -9.0933    0.0000 C   0  0  0  0  0  0  0  0  0  0  0  0
    3.0000   -7.7942    0.0000 C   0  0  0  0  0  0  0  0  0  0  0  0
  1  2  2  0
  2  3  1  0
  3  4  1  0
  4  5  1  0
  5  6  1  0
  6  7  2  0
  7  8  1  0
  8  9  2  0
  9 10  1  0
 10 11  2  0
  2 12  1  0
 12 13  2  0
 13 14  1  0
 14 15  2  0
 15 16  1  0
 16 17  1  0
 15 18  1  0
 18 19  2  0
 11  6  1  0
 19 12  1  0
M  END
>  <Title>  (855) 
idABGWgen8

$$$$

     RDKit          2D

 10 10  0  0  0  0  0  0  0  0999 V2000
    3.6929    0.0000    0.0000 C   0  0  0  0  0  0  0  0  0  0  0  0
    2.1929    0.0000    0.0000 C   0  0  0  0  0  0  0  0  0  0  0  0
    1.6798    1.4095    0.0000 C   0  0  0  0  0  0  0  0  0  0  0  0
    0.3808    2.1595    0.0000 C   0  0  0  0  0  0  0  0  0  0  0  0
   -1.0964    1.8991    0.0000 C   0  0  0  0  0  0  0  0  0  0  0  0
   -2.0606    0.7500    0.0000 C   0  0  0  0  0  0  0  0  0  0  0  0
   -2.0606   -0.7500    0.0000 C   0  0  0  0  0  0  0  0  0  0  0  0
   -1.0964   -1.8991    0.0000 C   0  0  0  0  0  0  0  0  0  0  0  0
    0.3808   -2.1595    0.0000 C   0  0  0  0  0  0  0  0  0  0  0  0
    1.6798   -1.4095    0.0000 C   0  0  0  0  0  0  0  0  0  0  0  0
  1  2  1  0
  2  3  1  0
  3  4  1  0
  4  5  1  0
  5  6  1  0
  6  7  1  0
  7  8  1  0
  8  9  1  0
  9 10  1  0
 10  2  1  0
M  END
>  <Title>  (856) 
idABGXgen8

$$$$

     RDKit          2D

 42 47  0  0  0  0  0  0  0  0999 V2000
    3.0000    0.0000    0.0000 C   0  0  0  0  0  0  0  0  0  0  0  0
    1.5000    0.0000    0.0000 C   0  0  0  0  0  0  0  0  0  0  0  0
    0.7500   -1.2990    0.0000 C   0  0  0  0  0  0  0  0  0  0  0  0
   -0.7500   -1.2990    0.0000 C   0  0  0  0  0  0  0  0  0  0  0  0
   -1.5000    0.0000    0.0000 C   0  0  0  0  0  0  0  0  0  0  0  0
   -3.0000    0.0000    0.0000 C   0  0  0  0  0  0  0  0  0  0  0  0
   -3.8817   -1.2135    0.0000 N   0  0  0  0  0  0  0  0  0  0  0  0
   -5.3083   -0.7500    0.0000 N   0  0  0  0  0  0  0  0  0  0  0  0
   -5.3083    0.7500    0.0000 N   0  0  0  0  0  0  0  0  0  0  0  0
   -3.8817    1.2135    0.0000 N   0  0  0  0  0  0  0  0  0  0  0  0
   -3.4182    2.6401    0.0000 C   0  0  0  0  0  0  0  0  0  0  0  0
   -1.9509    2.9520    0.0000 C   0  0  0  0  0  0  0  0  0  0  0  0
   -1.4874    4.3786    0.0000 C   0  0  0  0  0  0  0  0  0  0  0  0
   -2.4911    5.4933    0.0000 C   0  0  0  0  0  0  0  0  0  0  0  0
   -3.9583    5.1814    0.0000 C   0  0  0  0  0  0  0  0  0  0  0  0
   -4.4218    3.7548    0.0000 C   0  0  0  0  0  0  0  0  0  0  0  0
   -5.8891    3.4430    0.0000 C   0  0  0  0  0  0  0  0  0  0  0  0
   -6.8928    4.5577    0.0000 C   0  0  0  0  0  0  0  0  0  0  0  0
   -8.3600    4.2458    0.0000 C   0  0  0  0  0  0  0  0  0  0  0  0
   -8.8235    2.8192    0.0000 C   0  0  0  0  0  0  0  0  0  0  0  0
  -10.2907    2.5074    0.0000 C   0  0  0  0  0  0  0  0  0  0  0  0
  -10.7543    1.0808    0.0000 O   0  0  0  0  0  0  0  0  0  0  0  0
  -11.2944    3.6221    0.0000 N   0  0  0  0  0  0  0  0  0  0  0  0
  -12.7617    3.3102    0.0000 C   0  0  0  0  0  0  0  0  0  0  0  0
  -13.3718    1.9399    0.0000 N   0  0  0  0  0  0  0  0  0  0  0  0
  -14.8635    2.0967    0.0000 N   0  0  0  0  0  0  0  0  0  0  0  0
  -15.1754    3.5639    0.0000 N   0  0  0  0  0  0  0  0  0  0  0  0
  -13.8764    4.3139    0.0000 N   0  0  0  0  0  0  0  0  0  0  0  0
  -13.7196    5.8057    0.0000 C   0  0  0  0  0  0  0  0  0  0  0  0
  -12.3493    6.4158    0.0000 C   0  0  0  0  0  0  0  0  0  0  0  0
  -12.1925    7.9076    0.0000 C   0  0  0  0  0  0  0  0  0  0  0  0
  -13.4060    8.7893    0.0000 C   0  0  0  0  0  0  0  0  0  0  0  0
  -13.2492   10.2810    0.0000 C   0  0  0  0  0  0  0  0  0  0  0  0
  -14.4627   11.1627    0.0000 O   0  0  0  0  0  0  0  0  0  0  0  0
  -11.8789   10.8911    0.0000 N   0  0  0  0  0  0  0  0  0  0  0  0
  -11.7221   12.3829    0.0000 O   0  0  0  0  0  0  0  0  0  0  0  0
  -14.7763    8.1791    0.0000 C   0  0  0  0  0  0  0  0  0  0  0  0
  -14.9331    6.6874    0.0000 C   0  0  0  0  0  0  0  0  0  0  0  0
   -7.8198    1.7045    0.0000 C   0  0  0  0  0  0  0  0  0  0  0  0
   -6.3526    2.0164    0.0000 C   0  0  0  0  0  0  0  0  0  0  0  0
   -0.7500    1.2990    0.0000 N   0  0  0  0  0  0  0  0  0  0  0  0
    0.7500    1.2990    0.0000 N   0  0  0  0  0  0  0  0  0  0  0  0
  1  2  1  0
  2  3  2  0
  3  4  1  0
  4  5  2  0
  5  6  1  0
  6  7  2  0
  7  8  1  0
  8  9  2  0
  9 10  1  0
 10 11  1  0
 11 12  1  0
 12 13  1  0
 13 14  1  0
 14 15  1  0
 15 16  1  0
 16 17  1  0
 17 18  2  0
 18 19  1  0
 19 20  2  0
 20 21  1  0
 21 22  2  0
 21 23  1  0
 23 24  1  0
 24 25  2  0
 25 26  1  0
 26 27  2  0
 27 28  1  0
 28 29  1  0
 29 30  2  0
 30 31  1  0
 31 32  2  0
 32 33  1  0
 33 34  2  0
 33 35  1  0
 35 36  1  0
 32 37  1  0
 37 38  1  0
 20 39  1  0
 39 40  2  0
  5 41  1  0
 41 42  2  0
 42  2  1  0
 10  6  1  0
 16 11  1  0
 40 17  1  0
 28 24  1  0
 38 29  1  0
M  END
>  <Title>  (857) 
idABGYgen8

$$$$

     RDKit          2D

 37 41  0  0  0  0  0  0  0  0999 V2000
    4.2098   -1.2990    0.0000 C   0  0  0  0  0  0  0  0  0  0  0  0
    3.4598   -0.0000    0.0000 O   0  0  0  0  0  0  0  0  0  0  0  0
    1.9598    0.0000    0.0000 C   0  0  0  0  0  0  0  0  0  0  0  0
    1.3858   -1.3858    0.0000 C   0  0  0  0  0  0  0  0  0  0  0  0
   -0.0000   -1.9598    0.0000 C   0  0  0  0  0  0  0  0  0  0  0  0
   -1.3858   -1.3858    0.0000 C   0  0  0  0  0  0  0  0  0  0  0  0
   -1.9598    0.0000    0.0000 C   0  0  0  0  0  0  0  0  0  0  0  0
   -1.3858    1.3858    0.0000 C   0  0  0  0  0  0  0  0  0  0  0  0
   -2.4465    2.4465    0.0000 N   0  0  0  0  0  0  0  0  0  0  0  0
   -2.0583    3.8954    0.0000 C   0  0  0  0  0  0  0  0  0  0  0  0
   -3.1189    4.9560    0.0000 C   0  0  0  0  0  0  0  0  0  0  0  0
   -4.5678    4.5678    0.0000 C   0  0  0  0  0  0  0  0  0  0  0  0
   -4.9560    3.1189    0.0000 C   0  0  0  0  0  0  0  0  0  0  0  0
   -3.8954    2.0583    0.0000 C   0  0  0  0  0  0  0  0  0  0  0  0
   -4.2836    0.6094    0.0000 C   0  0  0  0  0  0  0  0  0  0  0  0
   -3.3396   -0.5564    0.0000 C   0  0  0  0  0  0  0  0  0  0  0  0
   -4.1566   -1.8144    0.0000 C   0  0  0  0  0  0  0  0  0  0  0  0
   -5.6055   -1.4261    0.0000 C   0  0  0  0  0  0  0  0  0  0  0  0
   -6.7712   -2.3701    0.0000 C   0  0  0  0  0  0  0  0  0  0  0  0
   -6.5365   -3.8516    0.0000 O   0  0  0  0  0  0  0  0  0  0  0  0
   -8.1716   -1.8326    0.0000 N   0  0  0  0  0  0  0  0  0  0  0  0
   -9.3373   -2.7765    0.0000 C   0  0  0  0  0  0  0  0  0  0  0  0
   -9.2588   -4.2745    0.0000 N   0  0  0  0  0  0  0  0  0  0  0  0
  -10.6591   -4.8120    0.0000 N   0  0  0  0  0  0  0  0  0  0  0  0
  -11.6031   -3.6463    0.0000 N   0  0  0  0  0  0  0  0  0  0  0  0
  -10.7862   -2.3883    0.0000 N   0  0  0  0  0  0  0  0  0  0  0  0
  -11.3237   -0.9879    0.0000 C   0  0  0  0  0  0  0  0  0  0  0  0
  -10.3797    0.1778    0.0000 C   0  0  0  0  0  0  0  0  0  0  0  0
  -10.9173    1.5781    0.0000 C   0  0  0  0  0  0  0  0  0  0  0  0
  -12.3988    1.8128    0.0000 C   0  0  0  0  0  0  0  0  0  0  0  0
  -13.3428    0.6471    0.0000 C   0  0  0  0  0  0  0  0  0  0  0  0
  -12.8052   -0.7533    0.0000 C   0  0  0  0  0  0  0  0  0  0  0  0
   -5.6840    0.0718    0.0000 C   0  0  0  0  0  0  0  0  0  0  0  0
   -6.9420    0.8888    0.0000 O   0  0  0  0  0  0  0  0  0  0  0  0
    0.0000    1.9598    0.0000 C   0  0  0  0  0  0  0  0  0  0  0  0
    0.0000    3.4598    0.0000 O   0  0  0  0  0  0  0  0  0  0  0  0
    1.3858    1.3858    0.0000 N   0  0  0  0  0  0  0  0  0  0  0  0
  1  2  1  0
  2  3  1  0
  3  4  2  0
  4  5  1  0
  5  6  2  0
  6  7  1  0
  7  8  2  0
  8  9  1  0
  9 10  1  0
 10 11  2  0
 11 12  1  0
 12 13  2  0
 13 14  1  0
 14 15  1  0
 15 16  2  0
 16 17  1  0
 17 18  2  0
 18 19  1  0
 19 20  2  0
 19 21  1  0
 21 22  1  0
 22 23  2  0
 23 24  1  0
 24 25  2  0
 25 26  1  0
 26 27  1  0
 27 28  2  0
 28 29  1  0
 29 30  2  0
 30 31  1  0
 31 32  2  0
 18 33  1  0
 33 34  2  0
  8 35  1  0
 35 36  2  0
 35 37  1  0
 37  3  1  0
 14  9  1  0
 33 15  1  0
 26 22  1  0
 32 27  1  0
M  END
>  <Title>  (858) 
idABGZgen8

$$$$

     RDKit          2D

 14 14  0  0  0  0  0  0  0  0999 V2000
    4.1621    0.0000    0.0000 C   0  0  0  0  0  0  0  0  0  0  0  0
    2.6621    0.0000    0.0000 C   0  0  0  0  0  0  0  0  0  0  0  0
    2.2395    1.4392    0.0000 C   0  0  0  0  0  0  0  0  0  0  0  0
    1.1059    2.4215    0.0000 C   0  0  0  0  0  0  0  0  0  0  0  0
   -0.3789    2.6350    0.0000 C   0  0  0  0  0  0  0  0  0  0  0  0
   -0.5923    4.1197    0.0000 F   0  0  0  0  0  0  0  0  0  0  0  0
   -1.7433    2.0119    0.0000 C   0  0  0  0  0  0  0  0  0  0  0  0
   -2.5543    0.7500    0.0000 C   0  0  0  0  0  0  0  0  0  0  0  0
   -2.5543   -0.7500    0.0000 C   0  0  0  0  0  0  0  0  0  0  0  0
   -1.7433   -2.0119    0.0000 C   0  0  0  0  0  0  0  0  0  0  0  0
   -2.7256   -3.1455    0.0000 C   0  0  0  0  0  0  0  0  0  0  0  0
   -0.3789   -2.6350    0.0000 C   0  0  0  0  0  0  0  0  0  0  0  0
    1.1059   -2.4215    0.0000 C   0  0  0  0  0  0  0  0  0  0  0  0
    2.2395   -1.4392    0.0000 C   0  0  0  0  0  0  0  0  0  0  0  0
  1  2  1  0
  2  3  2  0
  3  4  1  0
  4  5  2  0
  5  6  1  0
  5  7  1  0
  7  8  2  0
  8  9  1  0
  9 10  1  0
 10 11  1  0
 10 12  2  0
 12 13  1  0
 13 14  2  0
 14  2  1  0
M  END
>  <Title>  (859) 
idABHAgen8

$$$$

     RDKit          2D

 23 25  0  0  0  0  0  0  0  0999 V2000
    3.0000    0.0000    0.0000 C   0  0  0  0  0  0  0  0  0  0  0  0
    1.5000    0.0000    0.0000 C   0  0  0  0  0  0  0  0  0  0  0  0
    0.7500   -1.2990    0.0000 C   0  0  0  0  0  0  0  0  0  0  0  0
   -0.7500   -1.2990    0.0000 C   0  0  0  0  0  0  0  0  0  0  0  0
   -1.5000    0.0000    0.0000 C   0  0  0  0  0  0  0  0  0  0  0  0
   -3.0000    0.0000    0.0000 C   0  0  0  0  0  0  0  0  0  0  0  0
   -3.7500   -1.2990    0.0000 O   0  0  0  0  0  0  0  0  0  0  0  0
   -3.7500    1.2990    0.0000 N   0  0  0  0  0  0  0  0  0  0  0  0
   -5.2500    1.2990    0.0000 C   0  0  0  0  0  0  0  0  0  0  0  0
   -6.1317    0.0855    0.0000 N   0  0  0  0  0  0  0  0  0  0  0  0
   -7.5583    0.5490    0.0000 N   0  0  0  0  0  0  0  0  0  0  0  0
   -7.5583    2.0490    0.0000 N   0  0  0  0  0  0  0  0  0  0  0  0
   -6.1317    2.5126    0.0000 N   0  0  0  0  0  0  0  0  0  0  0  0
   -5.6682    3.9391    0.0000 C   0  0  0  0  0  0  0  0  0  0  0  0
   -4.2009    4.2510    0.0000 C   0  0  0  0  0  0  0  0  0  0  0  0
   -3.7374    5.6776    0.0000 C   0  0  0  0  0  0  0  0  0  0  0  0
   -4.7411    6.7923    0.0000 C   0  0  0  0  0  0  0  0  0  0  0  0
   -4.2776    8.2189    0.0000 C   0  0  0  0  0  0  0  0  0  0  0  0
   -6.2083    6.4805    0.0000 C   0  0  0  0  0  0  0  0  0  0  0  0
   -7.2120    7.5952    0.0000 O   0  0  0  0  0  0  0  0  0  0  0  0
   -6.6718    5.0539    0.0000 N   0  0  0  0  0  0  0  0  0  0  0  0
   -0.7500    1.2990    0.0000 C   0  0  0  0  0  0  0  0  0  0  0  0
    0.7500    1.2990    0.0000 C   0  0  0  0  0  0  0  0  0  0  0  0
  1  2  1  0
  2  3  2  0
  3  4  1  0
  4  5  2  0
  5  6  1  0
  6  7  2  0
  6  8  1  0
  8  9  1  0
  9 10  2  0
 10 11  1  0
 11 12  2  0
 12 13  1  0
 13 14  1  0
 14 15  2  0
 15 16  1  0
 16 17  2  0
 17 18  1  0
 17 19  1  0
 19 20  2  0
 19 21  1  0
  5 22  1  0
 22 23  2  0
 23  2  1  0
 13  9  1  0
 21 14  1  0
M  END
>  <Title>  (860) 
idABHBgen8

$$$$

     RDKit          2D

 21 22  0  0  0  0  0  0  0  0999 V2000
    7.5115    3.4834    0.0000 C   0  0  0  0  0  0  0  0  0  0  0  0
    6.0121    3.4431    0.0000 C   0  0  0  0  0  0  0  0  0  0  0  0
    5.5371    2.0203    0.0000 C   0  0  0  0  0  0  0  0  0  0  0  0
    4.2586    1.2357    0.0000 C   0  0  0  0  0  0  0  0  0  0  0  0
    2.7750    1.4564    0.0000 C   0  0  0  0  0  0  0  0  0  0  0  0
    3.1339    0.0000    0.0000 C   0  0  0  0  0  0  0  0  0  0  0  0
    2.7750   -1.4564    0.0000 C   0  0  0  0  0  0  0  0  0  0  0  0
    1.7803   -2.5792    0.0000 C   0  0  0  0  0  0  0  0  0  0  0  0
    0.3778   -3.1111    0.0000 C   0  0  0  0  0  0  0  0  0  0  0  0
   -1.1113   -2.9303    0.0000 C   0  0  0  0  0  0  0  0  0  0  0  0
   -2.3458   -2.0782    0.0000 C   0  0  0  0  0  0  0  0  0  0  0  0
   -3.0429   -0.7500    0.0000 C   0  0  0  0  0  0  0  0  0  0  0  0
   -3.0429    0.7500    0.0000 C   0  0  0  0  0  0  0  0  0  0  0  0
   -2.3458    2.0782    0.0000 C   0  0  0  0  0  0  0  0  0  0  0  0
   -1.1113    2.9303    0.0000 C   0  0  0  0  0  0  0  0  0  0  0  0
    0.3778    3.1111    0.0000 C   0  0  0  0  0  0  0  0  0  0  0  0
    1.7803    2.5792    0.0000 C   0  0  0  0  0  0  0  0  0  0  0  0
    1.7400    4.0786    0.0000 C   0  0  0  0  0  0  0  0  0  0  0  0
    2.6730    5.2532    0.0000 C   0  0  0  0  0  0  0  0  0  0  0  0
    4.1427    5.5532    0.0000 C   0  0  0  0  0  0  0  0  0  0  0  0
    5.4614    4.8384    0.0000 C   0  0  0  0  0  0  0  0  0  0  0  0
  1  2  1  0
  2  3  2  0
  3  4  1  0
  4  5  2  0
  5  6  1  0
  6  7  2  0
  7  8  1  0
  8  9  2  0
  9 10  1  0
 10 11  2  0
 11 12  1  0
 12 13  2  0
 13 14  1  0
 14 15  2  0
 15 16  1  0
 16 17  2  0
 17 18  1  0
 18 19  2  0
 19 20  1  0
 20 21  2  0
 21  2  1  0
 17  5  1  0
M  END
>  <Title>  (861) 
idABHCgen8

$$$$

     RDKit          2D

 66 75  0  0  0  0  0  0  0  0999 V2000
    3.2286   -0.0000    0.0000 C   0  0  0  0  0  0  0  0  0  0  0  0
    1.7286    0.0000    0.0000 C   0  0  0  0  0  0  0  0  0  0  0  0
    1.0777    1.3515    0.0000 C   0  0  0  0  0  0  0  0  0  0  0  0
   -0.3846    1.6852    0.0000 C   0  0  0  0  0  0  0  0  0  0  0  0
   -1.5574    0.7500    0.0000 C   0  0  0  0  0  0  0  0  0  0  0  0
   -2.9088    1.4008    0.0000 C   0  0  0  0  0  0  0  0  0  0  0  0
   -4.2297    0.6900    0.0000 C   0  0  0  0  0  0  0  0  0  0  0  0
   -5.3139    1.7266    0.0000 N   0  0  0  0  0  0  0  0  0  0  0  0
   -4.6631    3.0781    0.0000 N   0  0  0  0  0  0  0  0  0  0  0  0
   -3.1767    2.8767    0.0000 N   0  0  0  0  0  0  0  0  0  0  0  0
   -2.1401    3.9609    0.0000 C   0  0  0  0  0  0  0  0  0  0  0  0
   -0.6829    3.6053    0.0000 C   0  0  0  0  0  0  0  0  0  0  0  0
    0.3537    4.6895    0.0000 N   0  0  0  0  0  0  0  0  0  0  0  0
   -0.0669    6.1293    0.0000 N   0  0  0  0  0  0  0  0  0  0  0  0
   -1.5241    6.4849    0.0000 N   0  0  0  0  0  0  0  0  0  0  0  0
   -2.5607    5.4007    0.0000 N   0  0  0  0  0  0  0  0  0  0  0  0
   -4.0180    5.7563    0.0000 C   0  0  0  0  0  0  0  0  0  0  0  0
   -5.0546    4.6722    0.0000 C   0  0  0  0  0  0  0  0  0  0  0  0
   -6.5118    5.0278    0.0000 C   0  0  0  0  0  0  0  0  0  0  0  0
   -6.9324    6.4676    0.0000 C   0  0  0  0  0  0  0  0  0  0  0  0
   -8.3897    6.8232    0.0000 C   0  0  0  0  0  0  0  0  0  0  0  0
   -8.9585    8.2112    0.0000 N   0  0  0  0  0  0  0  0  0  0  0  0
  -10.4543    8.0991    0.0000 N   0  0  0  0  0  0  0  0  0  0  0  0
  -10.8099    6.6418    0.0000 N   0  0  0  0  0  0  0  0  0  0  0  0
   -9.5339    5.8533    0.0000 N   0  0  0  0  0  0  0  0  0  0  0  0
   -9.4218    4.3575    0.0000 C   0  0  0  0  0  0  0  0  0  0  0  0
   -8.0704    3.7067    0.0000 C   0  0  0  0  0  0  0  0  0  0  0  0
   -7.9583    2.2109    0.0000 C   0  0  0  0  0  0  0  0  0  0  0  0
   -9.1976    1.3659    0.0000 C   0  0  0  0  0  0  0  0  0  0  0  0
  -10.5491    2.0167    0.0000 C   0  0  0  0  0  0  0  0  0  0  0  0
  -10.6612    3.5125    0.0000 C   0  0  0  0  0  0  0  0  0  0  0  0
  -12.0126    4.1633    0.0000 C   0  0  0  0  0  0  0  0  0  0  0  0
  -13.2520    3.3184    0.0000 C   0  0  0  0  0  0  0  0  0  0  0  0
  -14.6034    3.9692    0.0000 C   0  0  0  0  0  0  0  0  0  0  0  0
  -14.7155    5.4650    0.0000 C   0  0  0  0  0  0  0  0  0  0  0  0
  -13.4762    6.3100    0.0000 C   0  0  0  0  0  0  0  0  0  0  0  0
  -12.1247    5.6592    0.0000 C   0  0  0  0  0  0  0  0  0  0  0  0
   -5.8958    7.5518    0.0000 C   0  0  0  0  0  0  0  0  0  0  0  0
   -4.4386    7.1962    0.0000 C   0  0  0  0  0  0  0  0  0  0  0  0
   -3.4020    8.2804    0.0000 C   0  0  0  0  0  0  0  0  0  0  0  0
   -3.8227    9.7202    0.0000 C   0  0  0  0  0  0  0  0  0  0  0  0
   -2.7861   10.8044    0.0000 C   0  0  0  0  0  0  0  0  0  0  0  0
   -1.3288   10.4487    0.0000 C   0  0  0  0  0  0  0  0  0  0  0  0
   -0.2922   11.5329    0.0000 C   0  0  0  0  0  0  0  0  0  0  0  0
   -0.9082    9.0089    0.0000 C   0  0  0  0  0  0  0  0  0  0  0  0
    0.5491    8.6533    0.0000 O   0  0  0  0  0  0  0  0  0  0  0  0
   -1.9448    7.9247    0.0000 N   0  0  0  0  0  0  0  0  0  0  0  0
   -1.5574   -0.7500    0.0000 N   0  0  0  0  0  0  0  0  0  0  0  0
   -2.9088   -1.4008    0.0000 C   0  0  0  0  0  0  0  0  0  0  0  0
   -4.2297   -0.6900    0.0000 N   0  0  0  0  0  0  0  0  0  0  0  0
   -5.3139   -1.7266    0.0000 N   0  0  0  0  0  0  0  0  0  0  0  0
   -4.6631   -3.0781    0.0000 N   0  0  0  0  0  0  0  0  0  0  0  0
   -3.1767   -2.8767    0.0000 N   0  0  0  0  0  0  0  0  0  0  0  0
   -2.1401   -3.9609    0.0000 C   0  0  0  0  0  0  0  0  0  0  0  0
   -0.6829   -3.6053    0.0000 C   0  0  0  0  0  0  0  0  0  0  0  0
    0.3537   -4.6895    0.0000 C   0  0  0  0  0  0  0  0  0  0  0  0
   -0.0669   -6.1293    0.0000 C   0  0  0  0  0  0  0  0  0  0  0  0
    0.9697   -7.2135    0.0000 C   0  0  0  0  0  0  0  0  0  0  0  0
    2.4269   -6.8579    0.0000 O   0  0  0  0  0  0  0  0  0  0  0  0
    0.5491   -8.6533    0.0000 N   0  0  0  0  0  0  0  0  0  0  0  0
    1.5856   -9.7375    0.0000 O   0  0  0  0  0  0  0  0  0  0  0  0
   -1.5241   -6.4849    0.0000 C   0  0  0  0  0  0  0  0  0  0  0  0
   -2.5607   -5.4007    0.0000 C   0  0  0  0  0  0  0  0  0  0  0  0
   -0.3846   -1.6852    0.0000 C   0  0  0  0  0  0  0  0  0  0  0  0
   -0.3603   -2.9000    0.0000 C   0  0  0  0  0  0  0  0  0  0  0  0
    1.0777   -1.3515    0.0000 C   0  0  0  0  0  0  0  0  0  0  0  0
  1  2  1  0
  2  3  2  0
  3  4  1  0
  4  5  2  0
  5  6  1  0
  6  7  2  0
  7  8  1  0
  8  9  2  0
  9 10  1  0
 10 11  1  0
 11 12  1  0
 12 13  1  0
 13 14  1  0
 14 15  2  0
 15 16  1  0
 16 17  1  0
 17 18  2  0
 18 19  1  0
 19 20  2  0
 20 21  1  0
 21 22  2  0
 22 23  1  0
 23 24  2  0
 24 25  1  0
 25 26  1  0
 26 27  2  0
 27 28  1  0
 28 29  2  0
 29 30  1  0
 30 31  2  0
 31 32  1  0
 32 33  2  0
 33 34  1  0
 34 35  2  0
 35 36  1  0
 36 37  2  0
 20 38  1  0
 38 39  2  0
 39 40  1  0
 40 41  2  0
 41 42  1  0
 42 43  2  0
 43 44  1  0
 43 45  1  0
 45 46  2  0
 45 47  1  0
  5 48  1  0
 48 49  1  0
 49 50  2  0
 50 51  1  0
 51 52  2  0
 52 53  1  0
 53 54  1  0
 54 55  2  0
 55 56  1  0
 56 57  2  0
 57 58  1  0
 58 59  2  0
 58 60  1  0
 60 61  1  0
 57 62  1  0
 62 63  1  0
 48 64  1  0
 64 65  1  0
 64 66  2  0
 66  2  1  0
 10  6  1  0
 16 11  1  0
 39 17  1  0
 47 40  1  0
 53 49  1  0
 63 54  1  0
 25 21  1  0
 31 26  1  0
 37 32  1  0
M  END
>  <Title>  (862) 
idABHDgen8

$$$$

     RDKit          2D

 51 58  0  0  0  0  0  0  0  0999 V2000
    3.0000    0.0000    0.0000 C   0  0  0  0  0  0  0  0  0  0  0  0
    1.5000    0.0000    0.0000 C   0  0  0  0  0  0  0  0  0  0  0  0
    0.7500   -1.2990    0.0000 C   0  0  0  0  0  0  0  0  0  0  0  0
   -0.7500   -1.2990    0.0000 C   0  0  0  0  0  0  0  0  0  0  0  0
   -1.5000    0.0000    0.0000 C   0  0  0  0  0  0  0  0  0  0  0  0
   -3.0000    0.0000    0.0000 C   0  0  0  0  0  0  0  0  0  0  0  0
   -3.8817   -1.2135    0.0000 N   0  0  0  0  0  0  0  0  0  0  0  0
   -5.3083   -0.7500    0.0000 N   0  0  0  0  0  0  0  0  0  0  0  0
   -5.3083    0.7500    0.0000 N   0  0  0  0  0  0  0  0  0  0  0  0
   -3.8817    1.2135    0.0000 N   0  0  0  0  0  0  0  0  0  0  0  0
   -3.4182    2.6401    0.0000 C   0  0  0  0  0  0  0  0  0  0  0  0
   -1.9509    2.9520    0.0000 C   0  0  0  0  0  0  0  0  0  0  0  0
   -1.4874    4.3786    0.0000 C   0  0  0  0  0  0  0  0  0  0  0  0
   -2.4911    5.4933    0.0000 C   0  0  0  0  0  0  0  0  0  0  0  0
   -2.0276    6.9199    0.0000 C   0  0  0  0  0  0  0  0  0  0  0  0
   -2.9093    8.1334    0.0000 N   0  0  0  0  0  0  0  0  0  0  0  0
   -2.0276    9.3469    0.0000 N   0  0  0  0  0  0  0  0  0  0  0  0
   -0.6010    8.8834    0.0000 N   0  0  0  0  0  0  0  0  0  0  0  0
   -0.6010    7.3834    0.0000 N   0  0  0  0  0  0  0  0  0  0  0  0
    0.6125    6.5017    0.0000 C   0  0  0  0  0  0  0  0  0  0  0  0
    0.4557    5.0099    0.0000 C   0  0  0  0  0  0  0  0  0  0  0  0
    1.6693    4.1283    0.0000 C   0  0  0  0  0  0  0  0  0  0  0  0
    3.0396    4.7384    0.0000 C   0  0  0  0  0  0  0  0  0  0  0  0
    3.1964    6.2301    0.0000 C   0  0  0  0  0  0  0  0  0  0  0  0
    1.9829    7.1118    0.0000 C   0  0  0  0  0  0  0  0  0  0  0  0
    2.1396    8.6036    0.0000 C   0  0  0  0  0  0  0  0  0  0  0  0
    0.9261    9.4853    0.0000 C   0  0  0  0  0  0  0  0  0  0  0  0
    1.0829   10.9771    0.0000 C   0  0  0  0  0  0  0  0  0  0  0  0
    2.4532   11.5872    0.0000 C   0  0  0  0  0  0  0  0  0  0  0  0
    3.6668   10.7055    0.0000 C   0  0  0  0  0  0  0  0  0  0  0  0
    3.5100    9.2137    0.0000 C   0  0  0  0  0  0  0  0  0  0  0  0
    4.7235    8.3320    0.0000 C   0  0  0  0  0  0  0  0  0  0  0  0
    6.0938    8.9421    0.0000 C   0  0  0  0  0  0  0  0  0  0  0  0
    7.3073    8.0605    0.0000 C   0  0  0  0  0  0  0  0  0  0  0  0
    7.1505    6.5687    0.0000 C   0  0  0  0  0  0  0  0  0  0  0  0
    5.7802    5.9586    0.0000 C   0  0  0  0  0  0  0  0  0  0  0  0
    4.5667    6.8402    0.0000 C   0  0  0  0  0  0  0  0  0  0  0  0
   -3.9583    5.1814    0.0000 C   0  0  0  0  0  0  0  0  0  0  0  0
   -4.4218    3.7548    0.0000 C   0  0  0  0  0  0  0  0  0  0  0  0
   -5.8891    3.4430    0.0000 C   0  0  0  0  0  0  0  0  0  0  0  0
   -6.8928    4.5577    0.0000 C   0  0  0  0  0  0  0  0  0  0  0  0
   -8.3600    4.2458    0.0000 C   0  0  0  0  0  0  0  0  0  0  0  0
   -8.8235    2.8192    0.0000 C   0  0  0  0  0  0  0  0  0  0  0  0
  -10.2907    2.5074    0.0000 C   0  0  0  0  0  0  0  0  0  0  0  0
  -10.7543    1.0808    0.0000 O   0  0  0  0  0  0  0  0  0  0  0  0
  -11.2944    3.6221    0.0000 N   0  0  0  0  0  0  0  0  0  0  0  0
  -12.7617    3.3102    0.0000 O   0  0  0  0  0  0  0  0  0  0  0  0
   -7.8198    1.7045    0.0000 C   0  0  0  0  0  0  0  0  0  0  0  0
   -6.3526    2.0164    0.0000 C   0  0  0  0  0  0  0  0  0  0  0  0
   -0.7500    1.2990    0.0000 C   0  0  0  0  0  0  0  0  0  0  0  0
    0.7500    1.2990    0.0000 C   0  0  0  0  0  0  0  0  0  0  0  0
  1  2  1  0
  2  3  2  0
  3  4  1  0
  4  5  2  0
  5  6  1  0
  6  7  2  0
  7  8  1  0
  8  9  2  0
  9 10  1  0
 10 11  1  0
 11 12  2  0
 12 13  1  0
 13 14  2  0
 14 15  1  0
 15 16  2  0
 16 17  1  0
 17 18  2  0
 18 19  1  0
 19 20  1  0
 20 21  2  0
 21 22  1  0
 22 23  2  0
 23 24  1  0
 24 25  2  0
 25 26  1  0
 26 27  2  0
 27 28  1  0
 28 29  2  0
 29 30  1  0
 30 31  2  0
 31 32  1  0
 32 33  2  0
 33 34  1  0
 34 35  2  0
 35 36  1  0
 36 37  2  0
 14 38  1  0
 38 39  2  0
 39 40  1  0
 40 41  2  0
 41 42  1  0
 42 43  2  0
 43 44  1  0
 44 45  2  0
 44 46  1  0
 46 47  1  0
 43 48  1  0
 48 49  1  0
  5 50  1  0
 50 51  2  0
 51  2  1  0
 10  6  1  0
 39 11  1  0
 49 40  1  0
 19 15  1  0
 25 20  1  0
 31 26  1  0
 37 32  1  0
M  END
>  <Title>  (863) 
idABHEgen8

$$$$

     RDKit          2D

 58 65  0  0  0  0  0  0  0  0999 V2000
   -3.8455    9.1307    0.0000 C   0  0  0  0  0  0  0  0  0  0  0  0
   -2.3715    8.8527    0.0000 C   0  0  0  0  0  0  0  0  0  0  0  0
   -1.8752    7.4372    0.0000 C   0  0  0  0  0  0  0  0  0  0  0  0
   -0.4012    7.1592    0.0000 C   0  0  0  0  0  0  0  0  0  0  0  0
    0.5765    8.2967    0.0000 C   0  0  0  0  0  0  0  0  0  0  0  0
    2.0505    8.0187    0.0000 N   0  0  0  0  0  0  0  0  0  0  0  0
    2.8715    9.2741    0.0000 C   0  0  0  0  0  0  0  0  0  0  0  0
    3.8456    8.1335    0.0000 C   0  0  0  0  0  0  0  0  0  0  0  0
    3.3449    6.7195    0.0000 C   0  0  0  0  0  0  0  0  0  0  0  0
    1.8701    6.4462    0.0000 C   0  0  0  0  0  0  0  0  0  0  0  0
    2.3336    5.0196    0.0000 C   0  0  0  0  0  0  0  0  0  0  0  0
    3.8336    5.0130    0.0000 O   0  0  0  0  0  0  0  0  0  0  0  0
    2.2159    3.5242    0.0000 N   0  0  0  0  0  0  0  0  0  0  0  0
    1.5349    2.1877    0.0000 C   0  0  0  0  0  0  0  0  0  0  0  0
    0.3943    1.2135    0.0000 N   0  0  0  0  0  0  0  0  0  0  0  0
    1.2760    0.0000    0.0000 N   0  0  0  0  0  0  0  0  0  0  0  0
    0.3943   -1.2135    0.0000 N   0  0  0  0  0  0  0  0  0  0  0  0
   -1.0323   -0.7500    0.0000 N   0  0  0  0  0  0  0  0  0  0  0  0
   -1.0323    0.7500    0.0000 C   0  0  0  0  0  0  0  0  0  0  0  0
   -2.5277    0.8677    0.0000 C   0  0  0  0  0  0  0  0  0  0  0  0
   -2.9348   -0.5760    0.0000 N   0  0  0  0  0  0  0  0  0  0  0  0
   -2.0062   -1.7540    0.0000 C   0  0  0  0  0  0  0  0  0  0  0  0
   -2.8395   -3.0012    0.0000 C   0  0  0  0  0  0  0  0  0  0  0  0
   -4.2832   -2.5940    0.0000 C   0  0  0  0  0  0  0  0  0  0  0  0
   -4.3421   -1.0952    0.0000 C   0  0  0  0  0  0  0  0  0  0  0  0
   -5.5893   -0.2618    0.0000 O   0  0  0  0  0  0  0  0  0  0  0  0
   -3.8642    1.5487    0.0000 C   0  0  0  0  0  0  0  0  0  0  0  0
   -4.8383    2.6893    0.0000 C   0  0  0  0  0  0  0  0  0  0  0  0
   -5.3019    4.1159    0.0000 C   0  0  0  0  0  0  0  0  0  0  0  0
   -6.7915    3.9396    0.0000 C   0  0  0  0  0  0  0  0  0  0  0  0
   -5.1842    5.6112    0.0000 N   0  0  0  0  0  0  0  0  0  0  0  0
   -4.5032    6.9478    0.0000 C   0  0  0  0  0  0  0  0  0  0  0  0
   -5.6812    7.8764    0.0000 O   0  0  0  0  0  0  0  0  0  0  0  0
   -3.3626    7.9219    0.0000 N   0  0  0  0  0  0  0  0  0  0  0  0
   -1.9360    8.3855    0.0000 C   0  0  0  0  0  0  0  0  0  0  0  0
   -0.4406    8.2678    0.0000 C   0  0  0  0  0  0  0  0  0  0  0  0
    0.8959    7.5868    0.0000 N   0  0  0  0  0  0  0  0  0  0  0  0
    1.3966    9.0007    0.0000 C   0  0  0  0  0  0  0  0  0  0  0  0
    0.0803    9.7122    0.0000 C   0  0  0  0  0  0  0  0  0  0  0  0
    1.0581   10.8498    0.0000 C   0  0  0  0  0  0  0  0  0  0  0  0
    0.5618   12.2653    0.0000 C   0  0  0  0  0  0  0  0  0  0  0  0
    1.5396   13.4028    0.0000 C   0  0  0  0  0  0  0  0  0  0  0  0
    3.0136   13.1248    0.0000 C   0  0  0  0  0  0  0  0  0  0  0  0
    3.9914   14.2623    0.0000 C   0  0  0  0  0  0  0  0  0  0  0  0
    3.4951   15.6779    0.0000 O   0  0  0  0  0  0  0  0  0  0  0  0
    5.4654   13.9843    0.0000 N   0  0  0  0  0  0  0  0  0  0  0  0
    6.4432   15.1218    0.0000 O   0  0  0  0  0  0  0  0  0  0  0  0
    3.5099   11.7093    0.0000 C   0  0  0  0  0  0  0  0  0  0  0  0
    2.5321   10.5717    0.0000 C   0  0  0  0  0  0  0  0  0  0  0  0
    3.0283    9.1562    0.0000 C   0  0  0  0  0  0  0  0  0  0  0  0
    4.5023    8.8782    0.0000 C   0  0  0  0  0  0  0  0  0  0  0  0
    4.9986    7.4626    0.0000 C   0  0  0  0  0  0  0  0  0  0  0  0
    4.0208    6.3251    0.0000 C   0  0  0  0  0  0  0  0  0  0  0  0
    4.6859    4.9806    0.0000 C   0  0  0  0  0  0  0  0  0  0  0  0
    2.5468    6.6031    0.0000 C   0  0  0  0  0  0  0  0  0  0  0  0
    1.5690    5.4656    0.0000 O   0  0  0  0  0  0  0  0  0  0  0  0
    2.0505    8.0187    0.0000 N   0  0  0  0  0  0  0  0  0  0  0  0
   -1.3937    9.9902    0.0000 C   0  0  0  0  0  0  0  0  0  0  0  0
  1  2  1  0
  2  3  2  0
  3  4  1  0
  4  5  2  0
  5  6  1  0
  6  7  1  0
  7  8  2  0
  8  9  1  0
  9 10  2  0
 10 11  1  0
 11 12  2  0
 11 13  1  0
 13 14  1  0
 14 15  1  0
 15 16  1  0
 16 17  2  0
 17 18  1  0
 18 19  2  0
 19 20  1  0
 20 21  1  0
 21 22  1  0
 22 23  2  0
 23 24  1  0
 24 25  2  0
 25 26  1  0
 20 27  2  0
 27 28  1  0
 28 29  2  0
 29 30  1  0
 29 31  1  0
 31 32  1  0
 32 33  2  0
 32 34  1  0
 34 35  1  0
 35 36  1  0
 36 37  1  0
 37 38  1  0
  5 39  1  0
 39 40  1  0
 40 41  2  0
 41 42  1  0
 42 43  2  0
 43 44  1  0
 44 45  2  0
 44 46  1  0
 46 47  1  0
 43 48  1  0
 48 49  2  0
 49 50  1  0
 50 51  2  0
 51 52  1  0
 52 53  2  0
 53 54  1  0
 53 55  1  0
 55 56  2  0
 55 57  1  0
 39 58  2  0
 58  2  1  0
 14  6  1  0
 19 15  1  0
 25 21  1  0
 49 40  1  0
 57 50  1  0
 38  7  1  0
 37 10  1  0
M  END
>  <Title>  (864) 
idABHFgen8

$$$$

     RDKit          2D

 34 38  0  0  0  0  0  0  0  0999 V2000
    3.7500   -1.2990    0.0000 C   0  0  0  0  0  0  0  0  0  0  0  0
    3.0000    0.0000    0.0000 O   0  0  0  0  0  0  0  0  0  0  0  0
    1.5000    0.0000    0.0000 C   0  0  0  0  0  0  0  0  0  0  0  0
    0.7500   -1.2990    0.0000 C   0  0  0  0  0  0  0  0  0  0  0  0
   -0.7500   -1.2990    0.0000 C   0  0  0  0  0  0  0  0  0  0  0  0
   -1.5000    0.0000    0.0000 C   0  0  0  0  0  0  0  0  0  0  0  0
   -3.0000    0.0000    0.0000 C   0  0  0  0  0  0  0  0  0  0  0  0
   -3.8817   -1.2135    0.0000 N   0  0  0  0  0  0  0  0  0  0  0  0
   -5.3083   -0.7500    0.0000 N   0  0  0  0  0  0  0  0  0  0  0  0
   -5.3083    0.7500    0.0000 N   0  0  0  0  0  0  0  0  0  0  0  0
   -3.8817    1.2135    0.0000 N   0  0  0  0  0  0  0  0  0  0  0  0
   -3.4182    2.6401    0.0000 C   0  0  0  0  0  0  0  0  0  0  0  0
   -4.2998    3.8536    0.0000 C   0  0  0  0  0  0  0  0  0  0  0  0
   -3.4182    5.0672    0.0000 C   0  0  0  0  0  0  0  0  0  0  0  0
   -1.9916    4.6036    0.0000 C   0  0  0  0  0  0  0  0  0  0  0  0
   -0.7780    5.4853    0.0000 C   0  0  0  0  0  0  0  0  0  0  0  0
    0.5923    4.8752    0.0000 O   0  0  0  0  0  0  0  0  0  0  0  0
   -0.9348    6.9771    0.0000 N   0  0  0  0  0  0  0  0  0  0  0  0
    0.2787    7.8588    0.0000 C   0  0  0  0  0  0  0  0  0  0  0  0
    1.7053    7.3952    0.0000 N   0  0  0  0  0  0  0  0  0  0  0  0
    2.5870    8.6088    0.0000 N   0  0  0  0  0  0  0  0  0  0  0  0
    1.7053    9.8223    0.0000 N   0  0  0  0  0  0  0  0  0  0  0  0
    0.2787    9.3588    0.0000 N   0  0  0  0  0  0  0  0  0  0  0  0
   -0.9348   10.2405    0.0000 C   0  0  0  0  0  0  0  0  0  0  0  0
   -2.3052    9.6303    0.0000 C   0  0  0  0  0  0  0  0  0  0  0  0
   -3.5187   10.5120    0.0000 C   0  0  0  0  0  0  0  0  0  0  0  0
   -3.3619   12.0038    0.0000 N   0  0  0  0  0  0  0  0  0  0  0  0
   -1.9916   12.6139    0.0000 N   0  0  0  0  0  0  0  0  0  0  0  0
   -0.7780   11.7322    0.0000 C   0  0  0  0  0  0  0  0  0  0  0  0
   -1.9916    3.1036    0.0000 C   0  0  0  0  0  0  0  0  0  0  0  0
   -0.7780    2.2220    0.0000 O   0  0  0  0  0  0  0  0  0  0  0  0
   -0.7500    1.2990    0.0000 N   0  0  0  0  0  0  0  0  0  0  0  0
    0.7500    1.2990    0.0000 C   0  0  0  0  0  0  0  0  0  0  0  0
    1.5000    2.5981    0.0000 O   0  0  0  0  0  0  0  0  0  0  0  0
  1  2  1  0
  2  3  1  0
  3  4  2  0
  4  5  1  0
  5  6  2  0
  6  7  1  0
  7  8  2  0
  8  9  1  0
  9 10  2  0
 10 11  1  0
 11 12  1  0
 12 13  2  0
 13 14  1  0
 14 15  2  0
 15 16  1  0
 16 17  2  0
 16 18  1  0
 18 19  1  0
 19 20  2  0
 20 21  1  0
 21 22  2  0
 22 23  1  0
 23 24  1  0
 24 25  2  0
 25 26  1  0
 26 27  2  0
 27 28  1  0
 28 29  2  0
 15 30  1  0
 30 31  2  0
  6 32  1  0
 32 33  1  0
 33 34  2  0
 33  3  1  0
 11  7  1  0
 30 12  1  0
 23 19  1  0
 29 24  1  0
M  END
>  <Title>  (865) 
idABHGgen8

$$$$

     RDKit          2D

 18 18  0  0  0  0  0  0  0  0999 V2000
    5.5816    0.0000    0.0000 C   0  0  0  0  0  0  0  0  0  0  0  0
    4.0816    0.0000    0.0000 C   0  0  0  0  0  0  0  0  0  0  0  0
    3.8060    1.4745    0.0000 C   0  0  0  0  0  0  0  0  0  0  0  0
    3.0164    2.7498    0.0000 C   0  0  0  0  0  0  0  0  0  0  0  0
    1.8193    3.6537    0.0000 C   0  0  0  0  0  0  0  0  0  0  0  0
    0.3766    4.0642    0.0000 C   0  0  0  0  0  0  0  0  0  0  0  0
   -1.1170    3.9258    0.0000 C   0  0  0  0  0  0  0  0  0  0  0  0
   -2.4597    3.2572    0.0000 C   0  0  0  0  0  0  0  0  0  0  0  0
   -3.4703    2.1487    0.0000 C   0  0  0  0  0  0  0  0  0  0  0  0
   -4.0121    0.7500    0.0000 C   0  0  0  0  0  0  0  0  0  0  0  0
   -4.0121   -0.7500    0.0000 C   0  0  0  0  0  0  0  0  0  0  0  0
   -3.4703   -2.1487    0.0000 C   0  0  0  0  0  0  0  0  0  0  0  0
   -2.4597   -3.2572    0.0000 C   0  0  0  0  0  0  0  0  0  0  0  0
   -1.1170   -3.9258    0.0000 C   0  0  0  0  0  0  0  0  0  0  0  0
    0.3766   -4.0642    0.0000 C   0  0  0  0  0  0  0  0  0  0  0  0
    1.8193   -3.6537    0.0000 C   0  0  0  0  0  0  0  0  0  0  0  0
    3.0164   -2.7498    0.0000 C   0  0  0  0  0  0  0  0  0  0  0  0
    3.8060   -1.4745    0.0000 C   0  0  0  0  0  0  0  0  0  0  0  0
  1  2  1  0
  2  3  2  0
  3  4  1  0
  4  5  2  0
  5  6  2  0
  6  7  1  0
  7  8  2  0
  8  9  1  0
  9 10  2  0
 10 11  1  0
 11 12  2  0
 12 13  1  0
 13 14  2  0
 14 15  1  0
 15 16  2  0
 16 17  1  0
 17 18  2  0
 18  2  1  0
M  END
>  <Title>  (866) 
idABHHgen8

$$$$

     RDKit          2D

 28 28  0  0  0  0  0  0  0  0999 V2000
    8.4722   -1.2990    0.0000 O   0  0  0  0  0  0  0  0  0  0  0  0
    7.7222    0.0000    0.0000 C   0  0  0  0  0  0  0  0  0  0  0  0
    6.2222    0.0000    0.0000 C   0  0  0  0  0  0  0  0  0  0  0  0
    6.0414   -1.4891    0.0000 C   0  0  0  0  0  0  0  0  0  0  0  0
    5.5095   -2.8916    0.0000 C   0  0  0  0  0  0  0  0  0  0  0  0
    4.6574   -4.1261    0.0000 C   0  0  0  0  0  0  0  0  0  0  0  0
    3.5346   -5.1207    0.0000 C   0  0  0  0  0  0  0  0  0  0  0  0
    2.2064   -5.8178    0.0000 C   0  0  0  0  0  0  0  0  0  0  0  0
    0.7500   -6.1768    0.0000 C   0  0  0  0  0  0  0  0  0  0  0  0
   -0.7500   -6.1768    0.0000 C   0  0  0  0  0  0  0  0  0  0  0  0
   -2.2064   -5.8178    0.0000 C   0  0  0  0  0  0  0  0  0  0  0  0
   -3.5346   -5.1207    0.0000 C   0  0  0  0  0  0  0  0  0  0  0  0
   -4.6574   -4.1261    0.0000 C   0  0  0  0  0  0  0  0  0  0  0  0
   -5.5095   -2.8916    0.0000 C   0  0  0  0  0  0  0  0  0  0  0  0
   -6.0414   -1.4891    0.0000 C   0  0  0  0  0  0  0  0  0  0  0  0
   -6.2222    0.0000    0.0000 C   0  0  0  0  0  0  0  0  0  0  0  0
   -6.0414    1.4891    0.0000 C   0  0  0  0  0  0  0  0  0  0  0  0
   -5.5095    2.8916    0.0000 C   0  0  0  0  0  0  0  0  0  0  0  0
   -4.6574    4.1261    0.0000 C   0  0  0  0  0  0  0  0  0  0  0  0
   -3.5346    5.1207    0.0000 C   0  0  0  0  0  0  0  0  0  0  0  0
   -2.2064    5.8178    0.0000 C   0  0  0  0  0  0  0  0  0  0  0  0
   -0.7500    6.1768    0.0000 C   0  0  0  0  0  0  0  0  0  0  0  0
    0.7500    6.1768    0.0000 C   0  0  0  0  0  0  0  0  0  0  0  0
    2.2064    5.8178    0.0000 C   0  0  0  0  0  0  0  0  0  0  0  0
    3.5346    5.1207    0.0000 C   0  0  0  0  0  0  0  0  0  0  0  0
    4.6574    4.1261    0.0000 C   0  0  0  0  0  0  0  0  0  0  0  0
    5.5095    2.8916    0.0000 C   0  0  0  0  0  0  0  0  0  0  0  0
    6.0414    1.4891    0.0000 C   0  0  0  0  0  0  0  0  0  0  0  0
  1  2  1  0
  2  3  1  0
  3  4  2  0
  4  5  1  0
  5  6  2  0
  6  7  1  0
  7  8  2  0
  8  9  1  0
  9 10  2  0
 10 11  1  0
 11 12  2  0
 12 13  1  0
 13 14  2  0
 14 15  1  0
 15 16  2  0
 16 17  1  0
 17 18  2  0
 18 19  1  0
 19 20  2  0
 20 21  1  0
 21 22  2  0
 22 23  1  0
 23 24  2  0
 24 25  1  0
 25 26  2  0
 26 27  1  0
 27 28  2  0
 28  3  1  0
M  END
>  <Title>  (867) 
idABHIgen8

$$$$

     RDKit          2D

 31 33  0  0  0  0  0  0  0  0999 V2000
    6.3316    1.2990    0.0000 C   0  0  0  0  0  0  0  0  0  0  0  0
    5.5816    0.0000    0.0000 C   0  0  0  0  0  0  0  0  0  0  0  0
    4.0816    0.0000    0.0000 C   0  0  0  0  0  0  0  0  0  0  0  0
    3.8060    1.4745    0.0000 C   0  0  0  0  0  0  0  0  0  0  0  0
    3.0164    2.7498    0.0000 C   0  0  0  0  0  0  0  0  0  0  0  0
    1.8193    3.6537    0.0000 C   0  0  0  0  0  0  0  0  0  0  0  0
    0.3766    4.0642    0.0000 C   0  0  0  0  0  0  0  0  0  0  0  0
   -1.1170    3.9258    0.0000 C   0  0  0  0  0  0  0  0  0  0  0  0
   -2.4597    3.2572    0.0000 C   0  0  0  0  0  0  0  0  0  0  0  0
   -3.4703    2.1487    0.0000 C   0  0  0  0  0  0  0  0  0  0  0  0
   -4.0121    0.7500    0.0000 C   0  0  0  0  0  0  0  0  0  0  0  0
   -4.0121   -0.7500    0.0000 C   0  0  0  0  0  0  0  0  0  0  0  0
   -3.4703   -2.1487    0.0000 C   0  0  0  0  0  0  0  0  0  0  0  0
   -2.4597   -3.2572    0.0000 C   0  0  0  0  0  0  0  0  0  0  0  0
   -1.1170   -3.9258    0.0000 C   0  0  0  0  0  0  0  0  0  0  0  0
    0.3766   -4.0642    0.0000 C   0  0  0  0  0  0  0  0  0  0  0  0
    1.8193   -3.6537    0.0000 C   0  0  0  0  0  0  0  0  0  0  0  0
    3.0164   -2.7498    0.0000 C   0  0  0  0  0  0  0  0  0  0  0  0
    3.5211   -4.1623    0.0000 C   0  0  0  0  0  0  0  0  0  0  0  0
    2.4675   -5.2299    0.0000 N   0  0  0  0  0  0  0  0  0  0  0  0
    0.9844   -5.0051    0.0000 N   0  0  0  0  0  0  0  0  0  0  0  0
    0.3123   -6.3461    0.0000 N   0  0  0  0  0  0  0  0  0  0  0  0
    1.3799   -7.3997    0.0000 N   0  0  0  0  0  0  0  0  0  0  0  0
    2.7119   -6.7099    0.0000 C   0  0  0  0  0  0  0  0  0  0  0  0
    4.0529   -7.3820    0.0000 O   0  0  0  0  0  0  0  0  0  0  0  0
    4.9402   -4.6484    0.0000 C   0  0  0  0  0  0  0  0  0  0  0  0
    6.2050   -3.8420    0.0000 C   0  0  0  0  0  0  0  0  0  0  0  0
    6.3631   -2.3503    0.0000 C   0  0  0  0  0  0  0  0  0  0  0  0
    7.7756   -1.8456    0.0000 C   0  0  0  0  0  0  0  0  0  0  0  0
    5.2954   -1.2967    0.0000 N   0  0  0  0  0  0  0  0  0  0  0  0
    3.8060   -1.4745    0.0000 N   0  0  0  0  0  0  0  0  0  0  0  0
  1  2  1  0
  2  3  1  0
  3  4  2  0
  4  5  1  0
  5  6  2  0
  6  7  1  0
  7  8  2  0
  8  9  1  0
  9 10  2  0
 10 11  1  0
 11 12  2  0
 12 13  1  0
 13 14  2  0
 14 15  1  0
 15 16  2  0
 16 17  1  0
 17 18  2  0
 18 19  1  0
 19 20  1  0
 20 21  1  0
 21 22  2  0
 22 23  1  0
 23 24  2  0
 24 25  1  0
 19 26  2  0
 26 27  1  0
 27 28  2  0
 28 29  1  0
 28 30  1  0
 30 31  1  0
 31  3  1  0
 31 18  1  0
 24 20  1  0
M  END
>  <Title>  (868) 
idABHJgen8

$$$$

     RDKit          2D

 40 40  0  0  0  0  0  0  0  0999 V2000
   11.3322   -1.2990    0.0000 C   0  0  0  0  0  0  0  0  0  0  0  0
   10.5822    0.0000    0.0000 O   0  0  0  0  0  0  0  0  0  0  0  0
    9.0822    0.0000    0.0000 C   0  0  0  0  0  0  0  0  0  0  0  0
    8.9583   -1.4949    0.0000 C   0  0  0  0  0  0  0  0  0  0  0  0
    8.5901   -2.9490    0.0000 C   0  0  0  0  0  0  0  0  0  0  0  0
    7.9875   -4.3226    0.0000 C   0  0  0  0  0  0  0  0  0  0  0  0
    7.1671   -5.5784    0.0000 C   0  0  0  0  0  0  0  0  0  0  0  0
    6.1512   -6.6820    0.0000 C   0  0  0  0  0  0  0  0  0  0  0  0
    4.9675   -7.6033    0.0000 C   0  0  0  0  0  0  0  0  0  0  0  0
    3.6483   -8.3172    0.0000 C   0  0  0  0  0  0  0  0  0  0  0  0
    2.2295   -8.8043    0.0000 C   0  0  0  0  0  0  0  0  0  0  0  0
    0.7500   -9.0512    0.0000 C   0  0  0  0  0  0  0  0  0  0  0  0
   -0.7500   -9.0512    0.0000 C   0  0  0  0  0  0  0  0  0  0  0  0
   -2.2295   -8.8043    0.0000 C   0  0  0  0  0  0  0  0  0  0  0  0
   -3.6483   -8.3172    0.0000 C   0  0  0  0  0  0  0  0  0  0  0  0
   -4.9675   -7.6033    0.0000 C   0  0  0  0  0  0  0  0  0  0  0  0
   -6.1512   -6.6820    0.0000 C   0  0  0  0  0  0  0  0  0  0  0  0
   -7.1671   -5.5784    0.0000 C   0  0  0  0  0  0  0  0  0  0  0  0
   -7.9875   -4.3226    0.0000 C   0  0  0  0  0  0  0  0  0  0  0  0
   -8.5901   -2.9490    0.0000 C   0  0  0  0  0  0  0  0  0  0  0  0
   -8.9583   -1.4949    0.0000 C   0  0  0  0  0  0  0  0  0  0  0  0
   -9.0822    0.0000    0.0000 C   0  0  0  0  0  0  0  0  0  0  0  0
   -8.9583    1.4949    0.0000 C   0  0  0  0  0  0  0  0  0  0  0  0
   -8.5901    2.9490    0.0000 C   0  0  0  0  0  0  0  0  0  0  0  0
   -7.9875    4.3226    0.0000 C   0  0  0  0  0  0  0  0  0  0  0  0
   -7.1671    5.5784    0.0000 C   0  0  0  0  0  0  0  0  0  0  0  0
   -6.1512    6.6820    0.0000 C   0  0  0  0  0  0  0  0  0  0  0  0
   -4.9675    7.6033    0.0000 C   0  0  0  0  0  0  0  0  0  0  0  0
   -3.6483    8.3172    0.0000 C   0  0  0  0  0  0  0  0  0  0  0  0
   -2.2295    8.8043    0.0000 C   0  0  0  0  0  0  0  0  0  0  0  0
   -0.7500    9.0512    0.0000 C   0  0  0  0  0  0  0  0  0  0  0  0
    0.7500    9.0512    0.0000 C   0  0  0  0  0  0  0  0  0  0  0  0
    2.2295    8.8043    0.0000 C   0  0  0  0  0  0  0  0  0  0  0  0
    3.6483    8.3172    0.0000 C   0  0  0  0  0  0  0  0  0  0  0  0
    4.9675    7.6033    0.0000 C   0  0  0  0  0  0  0  0  0  0  0  0
    6.1512    6.6820    0.0000 C   0  0  0  0  0  0  0  0  0  0  0  0
    7.1671    5.5784    0.0000 C   0  0  0  0  0  0  0  0  0  0  0  0
    7.9875    4.3226    0.0000 C   0  0  0  0  0  0  0  0  0  0  0  0
    8.5901    2.9490    0.0000 C   0  0  0  0  0  0  0  0  0  0  0  0
    8.9583    1.4949    0.0000 C   0  0  0  0  0  0  0  0  0  0  0  0
  1  2  1  0
  2  3  1  0
  3  4  2  0
  4  5  1  0
  5  6  2  0
  6  7  1  0
  7  8  2  0
  8  9  1  0
  9 10  2  0
 10 11  1  0
 11 12  2  0
 12 13  1  0
 13 14  2  0
 14 15  1  0
 15 16  2  0
 16 17  1  0
 17 18  2  0
 18 19  1  0
 19 20  2  0
 20 21  1  0
 21 22  2  0
 22 23  1  0
 23 24  2  0
 24 25  1  0
 25 26  2  0
 26 27  1  0
 27 28  2  0
 28 29  1  0
 29 30  2  0
 30 31  1  0
 31 32  2  0
 32 33  1  0
 33 34  2  0
 34 35  1  0
 35 36  2  0
 36 37  1  0
 37 38  2  0
 38 39  1  0
 39 40  2  0
 40  3  1  0
M  END
>  <Title>  (869) 
idABHKgen8

$$$$

     RDKit          2D

 41 46  0  0  0  0  0  0  0  0999 V2000
    3.0000    0.0000    0.0000 C   0  0  0  0  0  0  0  0  0  0  0  0
    1.5000    0.0000    0.0000 C   0  0  0  0  0  0  0  0  0  0  0  0
    0.7500   -1.2990    0.0000 C   0  0  0  0  0  0  0  0  0  0  0  0
   -0.7500   -1.2990    0.0000 C   0  0  0  0  0  0  0  0  0  0  0  0
   -1.5000    0.0000    0.0000 C   0  0  0  0  0  0  0  0  0  0  0  0
   -3.0000    0.0000    0.0000 C   0  0  0  0  0  0  0  0  0  0  0  0
   -3.8817   -1.2135    0.0000 N   0  0  0  0  0  0  0  0  0  0  0  0
   -5.3083   -0.7500    0.0000 N   0  0  0  0  0  0  0  0  0  0  0  0
   -5.3083    0.7500    0.0000 N   0  0  0  0  0  0  0  0  0  0  0  0
   -3.8817    1.2135    0.0000 N   0  0  0  0  0  0  0  0  0  0  0  0
   -3.4182    2.6401    0.0000 C   0  0  0  0  0  0  0  0  0  0  0  0
   -1.9509    2.9520    0.0000 C   0  0  0  0  0  0  0  0  0  0  0  0
   -1.4874    4.3786    0.0000 C   0  0  0  0  0  0  0  0  0  0  0  0
   -2.4911    5.4933    0.0000 C   0  0  0  0  0  0  0  0  0  0  0  0
   -3.9583    5.1814    0.0000 C   0  0  0  0  0  0  0  0  0  0  0  0
   -4.4218    3.7548    0.0000 C   0  0  0  0  0  0  0  0  0  0  0  0
   -5.8891    3.4430    0.0000 C   0  0  0  0  0  0  0  0  0  0  0  0
   -6.4992    2.0726    0.0000 C   0  0  0  0  0  0  0  0  0  0  0  0
   -7.9910    2.2294    0.0000 N   0  0  0  0  0  0  0  0  0  0  0  0
   -8.3028    3.6967    0.0000 N   0  0  0  0  0  0  0  0  0  0  0  0
   -7.0038    4.4467    0.0000 N   0  0  0  0  0  0  0  0  0  0  0  0
   -6.8470    5.9384    0.0000 C   0  0  0  0  0  0  0  0  0  0  0  0
   -5.4767    6.5485    0.0000 C   0  0  0  0  0  0  0  0  0  0  0  0
   -5.3199    8.0403    0.0000 C   0  0  0  0  0  0  0  0  0  0  0  0
   -6.5334    8.9220    0.0000 C   0  0  0  0  0  0  0  0  0  0  0  0
   -7.9037    8.3119    0.0000 C   0  0  0  0  0  0  0  0  0  0  0  0
   -8.0605    6.8201    0.0000 C   0  0  0  0  0  0  0  0  0  0  0  0
   -9.4308    6.2100    0.0000 C   0  0  0  0  0  0  0  0  0  0  0  0
   -9.5876    4.7182    0.0000 C   0  0  0  0  0  0  0  0  0  0  0  0
  -10.9579    4.1081    0.0000 C   0  0  0  0  0  0  0  0  0  0  0  0
  -12.1715    4.9898    0.0000 C   0  0  0  0  0  0  0  0  0  0  0  0
  -13.5418    4.3797    0.0000 C   0  0  0  0  0  0  0  0  0  0  0  0
  -14.7553    5.2614    0.0000 O   0  0  0  0  0  0  0  0  0  0  0  0
  -13.6986    2.8879    0.0000 N   0  0  0  0  0  0  0  0  0  0  0  0
  -15.0689    2.2778    0.0000 O   0  0  0  0  0  0  0  0  0  0  0  0
  -12.0147    6.4816    0.0000 C   0  0  0  0  0  0  0  0  0  0  0  0
  -10.6444    7.0917    0.0000 C   0  0  0  0  0  0  0  0  0  0  0  0
  -10.4876    8.5835    0.0000 O   0  0  0  0  0  0  0  0  0  0  0  0
   -0.7500    1.2990    0.0000 N   0  0  0  0  0  0  0  0  0  0  0  0
    0.7500    1.2990    0.0000 C   0  0  0  0  0  0  0  0  0  0  0  0
    1.5000    2.5981    0.0000 O   0  0  0  0  0  0  0  0  0  0  0  0
  1  2  1  0
  2  3  2  0
  3  4  1  0
  4  5  2  0
  5  6  1  0
  6  7  2  0
  7  8  1  0
  8  9  2  0
  9 10  1  0
 10 11  1  0
 11 12  1  0
 12 13  1  0
 13 14  1  0
 14 15  1  0
 15 16  1  0
 16 17  1  0
 17 18  2  0
 18 19  1  0
 19 20  2  0
 20 21  1  0
 21 22  1  0
 22 23  1  0
 23 24  1  0
 24 25  1  0
 25 26  1  0
 26 27  1  0
 27 28  1  0
 28 29  2  0
 29 30  1  0
 30 31  2  0
 31 32  1  0
 32 33  2  0
 32 34  1  0
 34 35  1  0
 31 36  1  0
 36 37  1  0
 37 38  2  0
  5 39  1  0
 39 40  1  0
 40 41  2  0
 40  2  1  0
 10  6  1  0
 16 11  1  0
 21 17  1  0
 27 22  1  0
 37 28  1  0
M  END
>  <Title>  (870) 
idABHLgen8

$$$$

     RDKit          2D

 62 71  0  0  0  0  0  0  0  0999 V2000
    0.8311   10.2038    0.0000 C   0  0  0  0  0  0  0  0  0  0  0  0
   -0.5392    9.5937    0.0000 C   0  0  0  0  0  0  0  0  0  0  0  0
   -1.7527   10.4753    0.0000 C   0  0  0  0  0  0  0  0  0  0  0  0
   -3.1230    9.8652    0.0000 C   0  0  0  0  0  0  0  0  0  0  0  0
   -3.2798    8.3735    0.0000 C   0  0  0  0  0  0  0  0  0  0  0  0
   -4.6502    7.7634    0.0000 C   0  0  0  0  0  0  0  0  0  0  0  0
   -5.9492    8.5134    0.0000 N   0  0  0  0  0  0  0  0  0  0  0  0
   -7.0639    7.5097    0.0000 N   0  0  0  0  0  0  0  0  0  0  0  0
   -6.4538    6.1393    0.0000 N   0  0  0  0  0  0  0  0  0  0  0  0
   -4.9620    6.2961    0.0000 N   0  0  0  0  0  0  0  0  0  0  0  0
   -3.9583    5.1814    0.0000 C   0  0  0  0  0  0  0  0  0  0  0  0
   -2.4911    5.4933    0.0000 C   0  0  0  0  0  0  0  0  0  0  0  0
   -1.4874    4.3786    0.0000 C   0  0  0  0  0  0  0  0  0  0  0  0
   -1.9509    2.9520    0.0000 C   0  0  0  0  0  0  0  0  0  0  0  0
   -0.9472    1.8373    0.0000 C   0  0  0  0  0  0  0  0  0  0  0  0
   -1.2591    0.3700    0.0000 N   0  0  0  0  0  0  0  0  0  0  0  0
    0.0399   -0.3800    0.0000 N   0  0  0  0  0  0  0  0  0  0  0  0
    1.1547    0.6237    0.0000 N   0  0  0  0  0  0  0  0  0  0  0  0
    0.5445    1.9941    0.0000 N   0  0  0  0  0  0  0  0  0  0  0  0
    1.2945    3.2931    0.0000 C   0  0  0  0  0  0  0  0  0  0  0  0
    0.5445    4.5921    0.0000 C   0  0  0  0  0  0  0  0  0  0  0  0
    1.2945    5.8912    0.0000 C   0  0  0  0  0  0  0  0  0  0  0  0
    2.7945    5.8912    0.0000 C   0  0  0  0  0  0  0  0  0  0  0  0
    3.5445    4.5921    0.0000 C   0  0  0  0  0  0  0  0  0  0  0  0
    2.7945    3.2931    0.0000 C   0  0  0  0  0  0  0  0  0  0  0  0
   -3.4182    2.6401    0.0000 C   0  0  0  0  0  0  0  0  0  0  0  0
   -4.4218    3.7548    0.0000 C   0  0  0  0  0  0  0  0  0  0  0  0
   -5.8891    3.4430    0.0000 C   0  0  0  0  0  0  0  0  0  0  0  0
   -6.8928    4.5577    0.0000 C   0  0  0  0  0  0  0  0  0  0  0  0
   -8.3600    4.2458    0.0000 C   0  0  0  0  0  0  0  0  0  0  0  0
   -8.8235    2.8192    0.0000 C   0  0  0  0  0  0  0  0  0  0  0  0
  -10.2907    2.5074    0.0000 C   0  0  0  0  0  0  0  0  0  0  0  0
  -10.7543    1.0808    0.0000 O   0  0  0  0  0  0  0  0  0  0  0  0
  -11.2944    3.6221    0.0000 N   0  0  0  0  0  0  0  0  0  0  0  0
  -12.7617    3.3102    0.0000 C   0  0  0  0  0  0  0  0  0  0  0  0
  -13.3718    1.9399    0.0000 N   0  0  0  0  0  0  0  0  0  0  0  0
  -14.8635    2.0967    0.0000 N   0  0  0  0  0  0  0  0  0  0  0  0
  -15.1754    3.5639    0.0000 N   0  0  0  0  0  0  0  0  0  0  0  0
  -13.8764    4.3139    0.0000 N   0  0  0  0  0  0  0  0  0  0  0  0
  -13.7196    5.8057    0.0000 C   0  0  0  0  0  0  0  0  0  0  0  0
  -12.3493    6.4158    0.0000 C   0  0  0  0  0  0  0  0  0  0  0  0
  -12.1925    7.9076    0.0000 C   0  0  0  0  0  0  0  0  0  0  0  0
  -13.4060    8.7893    0.0000 C   0  0  0  0  0  0  0  0  0  0  0  0
  -14.7763    8.1791    0.0000 C   0  0  0  0  0  0  0  0  0  0  0  0
  -14.9331    6.6874    0.0000 C   0  0  0  0  0  0  0  0  0  0  0  0
   -7.8198    1.7045    0.0000 C   0  0  0  0  0  0  0  0  0  0  0  0
   -6.3526    2.0164    0.0000 C   0  0  0  0  0  0  0  0  0  0  0  0
   -5.3489    0.9017    0.0000 C   0  0  0  0  0  0  0  0  0  0  0  0
   -3.8571    1.0585    0.0000 C   0  0  0  0  0  0  0  0  0  0  0  0
   -3.2470   -0.3119    0.0000 N   0  0  0  0  0  0  0  0  0  0  0  0
   -4.3617   -1.3156    0.0000 N   0  0  0  0  0  0  0  0  0  0  0  0
   -5.6608   -0.5656    0.0000 N   0  0  0  0  0  0  0  0  0  0  0  0
   -7.0311   -1.1757    0.0000 C   0  0  0  0  0  0  0  0  0  0  0  0
   -8.2446   -0.2940    0.0000 C   0  0  0  0  0  0  0  0  0  0  0  0
   -9.6149   -0.9041    0.0000 C   0  0  0  0  0  0  0  0  0  0  0  0
   -9.7717   -2.3959    0.0000 C   0  0  0  0  0  0  0  0  0  0  0  0
  -11.1420   -3.0060    0.0000 C   0  0  0  0  0  0  0  0  0  0  0  0
   -8.5582   -3.2776    0.0000 C   0  0  0  0  0  0  0  0  0  0  0  0
   -8.7150   -4.7693    0.0000 O   0  0  0  0  0  0  0  0  0  0  0  0
   -7.1879   -2.6675    0.0000 N   0  0  0  0  0  0  0  0  0  0  0  0
   -2.0663    7.4918    0.0000 O   0  0  0  0  0  0  0  0  0  0  0  0
   -0.6960    8.1019    0.0000 C   0  0  0  0  0  0  0  0  0  0  0  0
  1  2  1  0
  2  3  2  0
  3  4  1  0
  4  5  2  0
  5  6  1  0
  6  7  2  0
  7  8  1  0
  8  9  2  0
  9 10  1  0
 10 11  1  0
 11 12  2  0
 12 13  1  0
 13 14  2  0
 14 15  1  0
 15 16  2  0
 16 17  1  0
 17 18  2  0
 18 19  1  0
 19 20  1  0
 20 21  2  0
 21 22  1  0
 22 23  2  0
 23 24  1  0
 24 25  2  0
 14 26  1  0
 26 27  2  0
 27 28  1  0
 28 29  2  0
 29 30  1  0
 30 31  2  0
 31 32  1  0
 32 33  2  0
 32 34  1  0
 34 35  1  0
 35 36  2  0
 36 37  1  0
 37 38  2  0
 38 39  1  0
 39 40  1  0
 40 41  2  0
 41 42  1  0
 42 43  2  0
 43 44  1  0
 44 45  2  0
 31 46  1  0
 46 47  2  0
 47 48  1  0
 48 49  2  0
 49 50  1  0
 50 51  2  0
 51 52  1  0
 52 53  1  0
 53 54  2  0
 54 55  1  0
 55 56  2  0
 56 57  1  0
 56 58  1  0
 58 59  2  0
 58 60  1  0
  5 61  1  0
 61 62  1  0
 62  2  1  0
 10  6  1  0
 27 11  1  0
 47 28  1  0
 52 48  1  0
 60 53  1  0
 19 15  1  0
 25 20  1  0
 39 35  1  0
 45 40  1  0
M  END
>  <Title>  (871) 
idABHMgen8

$$$$

     RDKit          2D

  9  9  0  0  0  0  0  0  0  0999 V2000
    3.2286   -0.0000    0.0000 C   0  0  0  0  0  0  0  0  0  0  0  0
    1.7286    0.0000    0.0000 C   0  0  0  0  0  0  0  0  0  0  0  0
    1.0777    1.3515    0.0000 C   0  0  0  0  0  0  0  0  0  0  0  0
   -0.3846    1.6852    0.0000 C   0  0  0  0  0  0  0  0  0  0  0  0
   -1.5574    0.7500    0.0000 C   0  0  0  0  0  0  0  0  0  0  0  0
   -1.5574   -0.7500    0.0000 C   0  0  0  0  0  0  0  0  0  0  0  0
   -0.3846   -1.6852    0.0000 C   0  0  0  0  0  0  0  0  0  0  0  0
   -0.7184   -3.1476    0.0000 F   0  0  0  0  0  0  0  0  0  0  0  0
    1.0777   -1.3515    0.0000 C   0  0  0  0  0  0  0  0  0  0  0  0
  1  2  1  0
  2  3  2  0
  3  4  1  0
  4  5  2  0
  5  6  1  0
  6  7  2  0
  7  8  1  0
  7  9  1  0
  9  2  1  0
M  END
>  <Title>  (872) 
idABHNgen8

$$$$

     RDKit          2D

 26 28  0  0  0  0  0  0  0  0999 V2000
    3.0000    0.0000    0.0000 C   0  0  0  0  0  0  0  0  0  0  0  0
    1.5000    0.0000    0.0000 C   0  0  0  0  0  0  0  0  0  0  0  0
    0.7500   -1.2990    0.0000 C   0  0  0  0  0  0  0  0  0  0  0  0
   -0.7500   -1.2990    0.0000 C   0  0  0  0  0  0  0  0  0  0  0  0
   -1.5000    0.0000    0.0000 C   0  0  0  0  0  0  0  0  0  0  0  0
   -3.0000    0.0000    0.0000 C   0  0  0  0  0  0  0  0  0  0  0  0
   -3.7500   -1.2990    0.0000 O   0  0  0  0  0  0  0  0  0  0  0  0
   -3.7500    1.2990    0.0000 N   0  0  0  0  0  0  0  0  0  0  0  0
   -5.2500    1.2990    0.0000 C   0  0  0  0  0  0  0  0  0  0  0  0
   -6.1317    0.0855    0.0000 N   0  0  0  0  0  0  0  0  0  0  0  0
   -7.5583    0.5490    0.0000 N   0  0  0  0  0  0  0  0  0  0  0  0
   -7.5583    2.0490    0.0000 N   0  0  0  0  0  0  0  0  0  0  0  0
   -6.1317    2.5126    0.0000 N   0  0  0  0  0  0  0  0  0  0  0  0
   -5.6682    3.9391    0.0000 C   0  0  0  0  0  0  0  0  0  0  0  0
   -4.2009    4.2510    0.0000 C   0  0  0  0  0  0  0  0  0  0  0  0
   -3.7374    5.6776    0.0000 C   0  0  0  0  0  0  0  0  0  0  0  0
   -4.7411    6.7923    0.0000 C   0  0  0  0  0  0  0  0  0  0  0  0
   -4.2776    8.2189    0.0000 C   0  0  0  0  0  0  0  0  0  0  0  0
   -5.2813    9.3336    0.0000 O   0  0  0  0  0  0  0  0  0  0  0  0
   -2.8104    8.5308    0.0000 N   0  0  0  0  0  0  0  0  0  0  0  0
   -2.3468    9.9574    0.0000 O   0  0  0  0  0  0  0  0  0  0  0  0
   -6.2083    6.4805    0.0000 C   0  0  0  0  0  0  0  0  0  0  0  0
   -7.2120    7.5952    0.0000 O   0  0  0  0  0  0  0  0  0  0  0  0
   -6.6718    5.0539    0.0000 N   0  0  0  0  0  0  0  0  0  0  0  0
   -0.7500    1.2990    0.0000 C   0  0  0  0  0  0  0  0  0  0  0  0
    0.7500    1.2990    0.0000 C   0  0  0  0  0  0  0  0  0  0  0  0
  1  2  1  0
  2  3  2  0
  3  4  1  0
  4  5  2  0
  5  6  1  0
  6  7  2  0
  6  8  1  0
  8  9  1  0
  9 10  2  0
 10 11  1  0
 11 12  2  0
 12 13  1  0
 13 14  1  0
 14 15  2  0
 15 16  1  0
 16 17  2  0
 17 18  1  0
 18 19  2  0
 18 20  1  0
 20 21  1  0
 17 22  1  0
 22 23  2  0
 22 24  1  0
  5 25  1  0
 25 26  2  0
 26  2  1  0
 13  9  1  0
 24 14  1  0
M  END
>  <Title>  (873) 
idABHOgen8

$$$$

     RDKit          2D

 33 37  0  0  0  0  0  0  0  0999 V2000
    3.7500   -1.2990    0.0000 C   0  0  0  0  0  0  0  0  0  0  0  0
    3.0000    0.0000    0.0000 O   0  0  0  0  0  0  0  0  0  0  0  0
    1.5000    0.0000    0.0000 C   0  0  0  0  0  0  0  0  0  0  0  0
    0.7500   -1.2990    0.0000 C   0  0  0  0  0  0  0  0  0  0  0  0
   -0.7500   -1.2990    0.0000 C   0  0  0  0  0  0  0  0  0  0  0  0
   -1.5000    0.0000    0.0000 C   0  0  0  0  0  0  0  0  0  0  0  0
   -3.0000    0.0000    0.0000 C   0  0  0  0  0  0  0  0  0  0  0  0
   -3.7500   -1.2990    0.0000 O   0  0  0  0  0  0  0  0  0  0  0  0
   -3.7500    1.2990    0.0000 N   0  0  0  0  0  0  0  0  0  0  0  0
   -5.2500    1.2990    0.0000 C   0  0  0  0  0  0  0  0  0  0  0  0
   -6.1317    0.0855    0.0000 N   0  0  0  0  0  0  0  0  0  0  0  0
   -7.5583    0.5490    0.0000 N   0  0  0  0  0  0  0  0  0  0  0  0
   -7.5583    2.0490    0.0000 N   0  0  0  0  0  0  0  0  0  0  0  0
   -6.1317    2.5126    0.0000 N   0  0  0  0  0  0  0  0  0  0  0  0
   -5.6682    3.9391    0.0000 C   0  0  0  0  0  0  0  0  0  0  0  0
   -4.2009    4.2510    0.0000 C   0  0  0  0  0  0  0  0  0  0  0  0
   -3.7374    5.6776    0.0000 C   0  0  0  0  0  0  0  0  0  0  0  0
   -4.7411    6.7923    0.0000 C   0  0  0  0  0  0  0  0  0  0  0  0
   -4.2776    8.2189    0.0000 C   0  0  0  0  0  0  0  0  0  0  0  0
   -5.1593    9.4324    0.0000 N   0  0  0  0  0  0  0  0  0  0  0  0
   -4.2776   10.6460    0.0000 N   0  0  0  0  0  0  0  0  0  0  0  0
   -2.8510   10.1824    0.0000 N   0  0  0  0  0  0  0  0  0  0  0  0
   -2.8510    8.6824    0.0000 N   0  0  0  0  0  0  0  0  0  0  0  0
   -1.6375    7.8008    0.0000 C   0  0  0  0  0  0  0  0  0  0  0  0
   -1.7943    6.3090    0.0000 C   0  0  0  0  0  0  0  0  0  0  0  0
   -0.5807    5.4273    0.0000 C   0  0  0  0  0  0  0  0  0  0  0  0
    0.7896    6.0374    0.0000 C   0  0  0  0  0  0  0  0  0  0  0  0
    0.9464    7.5292    0.0000 C   0  0  0  0  0  0  0  0  0  0  0  0
   -0.2671    8.4109    0.0000 C   0  0  0  0  0  0  0  0  0  0  0  0
   -6.2083    6.4805    0.0000 C   0  0  0  0  0  0  0  0  0  0  0  0
   -6.6718    5.0539    0.0000 C   0  0  0  0  0  0  0  0  0  0  0  0
   -0.7500    1.2990    0.0000 C   0  0  0  0  0  0  0  0  0  0  0  0
    0.7500    1.2990    0.0000 C   0  0  0  0  0  0  0  0  0  0  0  0
  1  2  1  0
  2  3  1  0
  3  4  2  0
  4  5  1  0
  5  6  2  0
  6  7  1  0
  7  8  2  0
  7  9  1  0
  9 10  1  0
 10 11  2  0
 11 12  1  0
 12 13  2  0
 13 14  1  0
 14 15  1  0
 15 16  2  0
 16 17  1  0
 17 18  2  0
 18 19  1  0
 19 20  2  0
 20 21  1  0
 21 22  2  0
 22 23  1  0
 23 24  1  0
 24 25  2  0
 25 26  1  0
 26 27  2  0
 27 28  1  0
 28 29  2  0
 18 30  1  0
 30 31  2  0
  6 32  1  0
 32 33  2  0
 33  3  1  0
 14 10  1  0
 31 15  1  0
 23 19  1  0
 29 24  1  0
M  END
>  <Title>  (874) 
idABHPgen8

$$$$

     RDKit          2D

 17 18  0  0  0  0  0  0  0  0999 V2000
   -2.9684    4.6426    0.0000 C   0  0  0  0  0  0  0  0  0  0  0  0
   -1.5060    4.3088    0.0000 C   0  0  0  0  0  0  0  0  0  0  0  0
   -0.7367    5.5965    0.0000 C   0  0  0  0  0  0  0  0  0  0  0  0
    0.6426    6.1860    0.0000 C   0  0  0  0  0  0  0  0  0  0  0  0
    2.1050    5.8522    0.0000 C   0  0  0  0  0  0  0  0  0  0  0  0
    3.0919    4.7226    0.0000 C   0  0  0  0  0  0  0  0  0  0  0  0
    3.2264    3.2287    0.0000 C   0  0  0  0  0  0  0  0  0  0  0  0
    2.4570    1.9410    0.0000 C   0  0  0  0  0  0  0  0  0  0  0  0
    1.0777    1.3515    0.0000 C   0  0  0  0  0  0  0  0  0  0  0  0
    1.7286    0.0000    0.0000 O   0  0  0  0  0  0  0  0  0  0  0  0
    1.0777   -1.3515    0.0000 C   0  0  0  0  0  0  0  0  0  0  0  0
   -0.3846   -1.6852    0.0000 C   0  0  0  0  0  0  0  0  0  0  0  0
   -1.5574   -0.7500    0.0000 C   0  0  0  0  0  0  0  0  0  0  0  0
   -1.5574    0.7500    0.0000 C   0  0  0  0  0  0  0  0  0  0  0  0
   -0.3846    1.6852    0.0000 C   0  0  0  0  0  0  0  0  0  0  0  0
   -1.3716    2.8148    0.0000 N   0  0  0  0  0  0  0  0  0  0  0  0
   -2.7508    2.2253    0.0000 N   0  0  0  0  0  0  0  0  0  0  0  0
  1  2  1  0
  2  3  2  0
  3  4  1  0
  4  5  2  0
  5  6  1  0
  6  7  2  0
  7  8  1  0
  8  9  2  0
  9 10  1  0
 10 11  1  0
 11 12  1  0
 12 13  2  0
 13 14  1  0
 14 15  2  0
 15 16  1  0
 16 17  1  0
 16  2  1  0
 15  9  1  0
M  END
>  <Title>  (875) 
idABHQgen8

$$$$

     RDKit          2D

 19 20  0  0  0  0  0  0  0  0999 V2000
    4.2214   -0.0430    0.0000 O   0  0  0  0  0  0  0  0  0  0  0  0
    4.4560   -1.5245    0.0000 C   0  0  0  0  0  0  0  0  0  0  0  0
    5.9146   -1.8747    0.0000 C   0  0  0  0  0  0  0  0  0  0  0  0
    6.6983   -3.1536    0.0000 C   0  0  0  0  0  0  0  0  0  0  0  0
    6.3481   -4.6122    0.0000 C   0  0  0  0  0  0  0  0  0  0  0  0
    5.0692   -5.3959    0.0000 C   0  0  0  0  0  0  0  0  0  0  0  0
    3.6106   -5.0458    0.0000 C   0  0  0  0  0  0  0  0  0  0  0  0
    2.8269   -3.7668    0.0000 C   0  0  0  0  0  0  0  0  0  0  0  0
    3.1771   -2.3083    0.0000 C   0  0  0  0  0  0  0  0  0  0  0  0
    1.9635   -1.4266    0.0000 C   0  0  0  0  0  0  0  0  0  0  0  0
    2.4271    0.0000    0.0000 C   0  0  0  0  0  0  0  0  0  0  0  0
    1.9635    1.4266    0.0000 C   0  0  0  0  0  0  0  0  0  0  0  0
    0.7500    2.3083    0.0000 C   0  0  0  0  0  0  0  0  0  0  0  0
   -0.7500    2.3083    0.0000 C   0  0  0  0  0  0  0  0  0  0  0  0
   -1.9635    1.4266    0.0000 C   0  0  0  0  0  0  0  0  0  0  0  0
   -2.4271    0.0000    0.0000 C   0  0  0  0  0  0  0  0  0  0  0  0
   -1.9635   -1.4266    0.0000 C   0  0  0  0  0  0  0  0  0  0  0  0
   -0.7500   -2.3083    0.0000 C   0  0  0  0  0  0  0  0  0  0  0  0
    0.7500   -2.3083    0.0000 C   0  0  0  0  0  0  0  0  0  0  0  0
  1  2  1  0
  2  3  2  0
  3  4  1  0
  4  5  2  0
  5  6  1  0
  6  7  2  0
  7  8  1  0
  8  9  2  0
  9 10  1  0
 10 11  2  0
 11 12  1  0
 12 13  2  0
 13 14  1  0
 14 15  2  0
 15 16  1  0
 16 17  2  0
 17 18  1  0
 18 19  2  0
  9  2  1  0
 19 10  1  0
M  END
>  <Title>  (876) 
idABHRgen8

$$$$

     RDKit          2D

 17 17  0  0  0  0  0  0  0  0999 V2000
    4.8705    0.0000    0.0000 C   0  0  0  0  0  0  0  0  0  0  0  0
    3.3705    0.0000    0.0000 C   0  0  0  0  0  0  0  0  0  0  0  0
    3.0367   -1.4624    0.0000 C   0  0  0  0  0  0  0  0  0  0  0  0
    2.1015   -2.6351    0.0000 C   0  0  0  0  0  0  0  0  0  0  0  0
    0.7500   -3.2860    0.0000 C   0  0  0  0  0  0  0  0  0  0  0  0
   -0.7500   -3.2860    0.0000 C   0  0  0  0  0  0  0  0  0  0  0  0
   -2.1015   -2.6351    0.0000 C   0  0  0  0  0  0  0  0  0  0  0  0
   -3.0367   -1.4624    0.0000 C   0  0  0  0  0  0  0  0  0  0  0  0
   -3.3705    0.0000    0.0000 C   0  0  0  0  0  0  0  0  0  0  0  0
   -3.0367    1.4624    0.0000 C   0  0  0  0  0  0  0  0  0  0  0  0
   -2.1015    2.6351    0.0000 C   0  0  0  0  0  0  0  0  0  0  0  0
   -3.0367    3.8079    0.0000 C   0  0  0  0  0  0  0  0  0  0  0  0
   -0.7500    3.2860    0.0000 C   0  0  0  0  0  0  0  0  0  0  0  0
   -1.0838    4.7484    0.0000 C   0  0  0  0  0  0  0  0  0  0  0  0
    0.7500    3.2860    0.0000 C   0  0  0  0  0  0  0  0  0  0  0  0
    2.1015    2.6351    0.0000 C   0  0  0  0  0  0  0  0  0  0  0  0
    3.0367    1.4624    0.0000 C   0  0  0  0  0  0  0  0  0  0  0  0
  1  2  1  0
  2  3  2  0
  3  4  1  0
  4  5  2  0
  5  6  1  0
  6  7  2  0
  7  8  1  0
  8  9  2  0
  9 10  1  0
 10 11  2  0
 11 12  1  0
 11 13  1  0
 13 14  1  0
 13 15  2  0
 15 16  1  0
 16 17  2  0
 17  2  1  0
M  END
>  <Title>  (877) 
idABHSgen8

$$$$

     RDKit          2D

 42 47  0  0  0  0  0  0  0  0999 V2000
    3.0000    0.0000    0.0000 C   0  0  0  0  0  0  0  0  0  0  0  0
    1.5000    0.0000    0.0000 C   0  0  0  0  0  0  0  0  0  0  0  0
    0.7500   -1.2990    0.0000 C   0  0  0  0  0  0  0  0  0  0  0  0
   -0.7500   -1.2990    0.0000 C   0  0  0  0  0  0  0  0  0  0  0  0
   -1.5000    0.0000    0.0000 C   0  0  0  0  0  0  0  0  0  0  0  0
   -3.0000    0.0000    0.0000 C   0  0  0  0  0  0  0  0  0  0  0  0
   -3.7500   -1.2990    0.0000 O   0  0  0  0  0  0  0  0  0  0  0  0
   -3.7500    1.2990    0.0000 N   0  0  0  0  0  0  0  0  0  0  0  0
   -5.2500    1.2990    0.0000 C   0  0  0  0  0  0  0  0  0  0  0  0
   -6.1317    0.0855    0.0000 N   0  0  0  0  0  0  0  0  0  0  0  0
   -7.5583    0.5490    0.0000 N   0  0  0  0  0  0  0  0  0  0  0  0
   -7.5583    2.0490    0.0000 N   0  0  0  0  0  0  0  0  0  0  0  0
   -6.1317    2.5126    0.0000 N   0  0  0  0  0  0  0  0  0  0  0  0
   -5.6682    3.9391    0.0000 C   0  0  0  0  0  0  0  0  0  0  0  0
   -4.2009    4.2510    0.0000 C   0  0  0  0  0  0  0  0  0  0  0  0
   -3.7374    5.6776    0.0000 C   0  0  0  0  0  0  0  0  0  0  0  0
   -4.7411    6.7923    0.0000 C   0  0  0  0  0  0  0  0  0  0  0  0
   -4.2776    8.2189    0.0000 C   0  0  0  0  0  0  0  0  0  0  0  0
   -5.1593    9.4324    0.0000 N   0  0  0  0  0  0  0  0  0  0  0  0
   -4.2776   10.6460    0.0000 N   0  0  0  0  0  0  0  0  0  0  0  0
   -2.8510   10.1824    0.0000 N   0  0  0  0  0  0  0  0  0  0  0  0
   -2.8510    8.6824    0.0000 N   0  0  0  0  0  0  0  0  0  0  0  0
   -1.6375    7.8008    0.0000 C   0  0  0  0  0  0  0  0  0  0  0  0
   -1.7943    6.3090    0.0000 C   0  0  0  0  0  0  0  0  0  0  0  0
   -0.5807    5.4273    0.0000 C   0  0  0  0  0  0  0  0  0  0  0  0
    0.7896    6.0374    0.0000 C   0  0  0  0  0  0  0  0  0  0  0  0
    0.9464    7.5292    0.0000 C   0  0  0  0  0  0  0  0  0  0  0  0
   -0.2671    8.4109    0.0000 C   0  0  0  0  0  0  0  0  0  0  0  0
   -6.2083    6.4805    0.0000 C   0  0  0  0  0  0  0  0  0  0  0  0
   -6.6718    5.0539    0.0000 C   0  0  0  0  0  0  0  0  0  0  0  0
   -8.1391    4.7420    0.0000 C   0  0  0  0  0  0  0  0  0  0  0  0
   -9.1428    5.8567    0.0000 C   0  0  0  0  0  0  0  0  0  0  0  0
  -10.6100    5.5448    0.0000 C   0  0  0  0  0  0  0  0  0  0  0  0
  -11.0735    4.1183    0.0000 C   0  0  0  0  0  0  0  0  0  0  0  0
  -12.5407    3.8064    0.0000 C   0  0  0  0  0  0  0  0  0  0  0  0
  -13.0043    2.3798    0.0000 O   0  0  0  0  0  0  0  0  0  0  0  0
  -13.5444    4.9211    0.0000 N   0  0  0  0  0  0  0  0  0  0  0  0
  -15.0117    4.6092    0.0000 O   0  0  0  0  0  0  0  0  0  0  0  0
  -10.0698    3.0035    0.0000 C   0  0  0  0  0  0  0  0  0  0  0  0
   -8.6026    3.3154    0.0000 C   0  0  0  0  0  0  0  0  0  0  0  0
   -0.7500    1.2990    0.0000 N   0  0  0  0  0  0  0  0  0  0  0  0
    0.7500    1.2990    0.0000 C   0  0  0  0  0  0  0  0  0  0  0  0
  1  2  1  0
  2  3  2  0
  3  4  1  0
  4  5  2  0
  5  6  1  0
  6  7  2  0
  6  8  1  0
  8  9  1  0
  9 10  2  0
 10 11  1  0
 11 12  2  0
 12 13  1  0
 13 14  1  0
 14 15  2  0
 15 16  1  0
 16 17  2  0
 17 18  1  0
 18 19  2  0
 19 20  1  0
 20 21  2  0
 21 22  1  0
 22 23  1  0
 23 24  2  0
 24 25  1  0
 25 26  2  0
 26 27  1  0
 27 28  2  0
 17 29  1  0
 29 30  2  0
 30 31  1  0
 31 32  2  0
 32 33  1  0
 33 34  2  0
 34 35  1  0
 35 36  2  0
 35 37  1  0
 37 38  1  0
 34 39  1  0
 39 40  2  0
  5 41  1  0
 41 42  1  0
 42  2  1  0
 13  9  1  0
 30 14  1  0
 40 31  1  0
 22 18  1  0
 28 23  1  0
M  END
>  <Title>  (878) 
idABHTgen8

$$$$

     RDKit          2D

 24 27  0  0  0  0  0  0  0  0999 V2000
   -5.3440   -3.2229    0.0000 C   0  0  0  0  0  0  0  0  0  0  0  0
   -5.2767   -1.7244    0.0000 C   0  0  0  0  0  0  0  0  0  0  0  0
   -3.9453   -1.0335    0.0000 C   0  0  0  0  0  0  0  0  0  0  0  0
   -3.8780    0.4650    0.0000 C   0  0  0  0  0  0  0  0  0  0  0  0
   -5.1421    1.2725    0.0000 C   0  0  0  0  0  0  0  0  0  0  0  0
   -5.0748    2.7710    0.0000 C   0  0  0  0  0  0  0  0  0  0  0  0
   -6.2476    3.7063    0.0000 N   0  0  0  0  0  0  0  0  0  0  0  0
   -5.7205    5.1106    0.0000 N   0  0  0  0  0  0  0  0  0  0  0  0
   -4.2220    5.0433    0.0000 N   0  0  0  0  0  0  0  0  0  0  0  0
   -3.8230    3.5974    0.0000 N   0  0  0  0  0  0  0  0  0  0  0  0
   -2.4186    3.0703    0.0000 C   0  0  0  0  0  0  0  0  0  0  0  0
   -2.2841    1.5763    0.0000 C   0  0  0  0  0  0  0  0  0  0  0  0
   -1.0323    0.7500    0.0000 C   0  0  0  0  0  0  0  0  0  0  0  0
    0.3943    1.2135    0.0000 N   0  0  0  0  0  0  0  0  0  0  0  0
    0.9214    2.6179    0.0000 C   0  0  0  0  0  0  0  0  0  0  0  0
    2.3838    2.9517    0.0000 C   0  0  0  0  0  0  0  0  0  0  0  0
    2.5182    4.4456    0.0000 C   0  0  0  0  0  0  0  0  0  0  0  0
    1.1389    5.0352    0.0000 C   0  0  0  0  0  0  0  0  0  0  0  0
    0.1520    3.9056    0.0000 C   0  0  0  0  0  0  0  0  0  0  0  0
   -1.3344    4.1069    0.0000 C   0  0  0  0  0  0  0  0  0  0  0  0
   -1.7979    5.5335    0.0000 O   0  0  0  0  0  0  0  0  0  0  0  0
   -6.4735    0.5816    0.0000 N   0  0  0  0  0  0  0  0  0  0  0  0
   -6.5408   -0.9169    0.0000 C   0  0  0  0  0  0  0  0  0  0  0  0
   -7.8722   -1.6079    0.0000 O   0  0  0  0  0  0  0  0  0  0  0  0
  1  2  1  0
  2  3  2  0
  3  4  1  0
  4  5  2  0
  5  6  1  0
  6  7  2  0
  7  8  1  0
  8  9  2  0
  9 10  1  0
 10 11  1  0
 11 12  1  0
 12 13  1  0
 13 14  1  0
 14 15  2  0
 15 16  1  0
 16 17  2  0
 17 18  1  0
 18 19  2  0
 19 20  1  0
 20 21  2  0
  5 22  1  0
 22 23  1  0
 23 24  2  0
 23  2  1  0
 10  6  1  0
 20 11  1  0
 19 15  1  0
M  END
>  <Title>  (879) 
idABHUgen8

$$$$

     RDKit          2D

 28 29  0  0  0  0  0  0  0  0999 V2000
    3.0643    7.9125    0.0000 C   0  0  0  0  0  0  0  0  0  0  0  0
    3.7933    6.6015    0.0000 C   0  0  0  0  0  0  0  0  0  0  0  0
    5.2406    6.9956    0.0000 C   0  0  0  0  0  0  0  0  0  0  0  0
    6.7053    6.6719    0.0000 C   0  0  0  0  0  0  0  0  0  0  0  0
    7.8517    5.7046    0.0000 C   0  0  0  0  0  0  0  0  0  0  0  0
    8.4174    4.3154    0.0000 C   0  0  0  0  0  0  0  0  0  0  0  0
    8.2726    2.8224    0.0000 C   0  0  0  0  0  0  0  0  0  0  0  0
    7.4506    1.5677    0.0000 C   0  0  0  0  0  0  0  0  0  0  0  0
    6.1396    0.8387    0.0000 C   0  0  0  0  0  0  0  0  0  0  0  0
    4.6401    0.8024    0.0000 C   0  0  0  0  0  0  0  0  0  0  0  0
    3.2954    1.4672    0.0000 C   0  0  0  0  0  0  0  0  0  0  0  0
    3.6073    0.0000    0.0000 N   0  0  0  0  0  0  0  0  0  0  0  0
    3.2954   -1.4672    0.0000 N   0  0  0  0  0  0  0  0  0  0  0  0
    2.4138   -2.6807    0.0000 N   0  0  0  0  0  0  0  0  0  0  0  0
    1.1147   -3.4307    0.0000 C   0  0  0  0  0  0  0  0  0  0  0  0
   -0.3771   -3.5875    0.0000 C   0  0  0  0  0  0  0  0  0  0  0  0
   -1.8037   -3.1240    0.0000 C   0  0  0  0  0  0  0  0  0  0  0  0
   -2.9184   -2.1203    0.0000 C   0  0  0  0  0  0  0  0  0  0  0  0
   -3.5285   -0.7500    0.0000 C   0  0  0  0  0  0  0  0  0  0  0  0
   -3.5285    0.7500    0.0000 C   0  0  0  0  0  0  0  0  0  0  0  0
   -2.9184    2.1203    0.0000 C   0  0  0  0  0  0  0  0  0  0  0  0
   -1.8037    3.1240    0.0000 C   0  0  0  0  0  0  0  0  0  0  0  0
   -0.3771    3.5875    0.0000 C   0  0  0  0  0  0  0  0  0  0  0  0
    1.1147    3.4307    0.0000 C   0  0  0  0  0  0  0  0  0  0  0  0
    2.4138    2.6807    0.0000 C   0  0  0  0  0  0  0  0  0  0  0  0
    2.1970    4.1650    0.0000 N   0  0  0  0  0  0  0  0  0  0  0  0
    2.6949    5.5800    0.0000 C   0  0  0  0  0  0  0  0  0  0  0  0
    1.4402    6.4020    0.0000 O   0  0  0  0  0  0  0  0  0  0  0  0
  1  2  1  0
  2  3  2  0
  3  4  1  0
  4  5  2  0
  5  6  1  0
  6  7  2  0
  7  8  1  0
  8  9  2  0
  9 10  1  0
 10 11  2  0
 11 12  1  0
 12 13  2  0
 13 14  1  0
 14 15  2  0
 15 16  1  0
 16 17  2  0
 17 18  1  0
 18 19  2  0
 19 20  1  0
 20 21  2  0
 21 22  1  0
 22 23  2  0
 23 24  1  0
 24 25  2  0
 25 26  1  0
 26 27  1  0
 27 28  2  0
 27  2  1  0
 25 11  1  0
M  END
>  <Title>  (880) 
idABHVgen8

$$$$

     RDKit          2D

 52 59  0  0  0  0  0  0  0  0999 V2000
    1.2263  -12.7388    0.0000 C   0  0  0  0  0  0  0  0  0  0  0  0
    0.2282  -11.6191    0.0000 O   0  0  0  0  0  0  0  0  0  0  0  0
   -1.2405  -11.9236    0.0000 C   0  0  0  0  0  0  0  0  0  0  0  0
   -2.1522  -10.7325    0.0000 C   0  0  0  0  0  0  0  0  0  0  0  0
   -3.6519  -10.7026    0.0000 C   0  0  0  0  0  0  0  0  0  0  0  0
   -4.6103  -11.8564    0.0000 C   0  0  0  0  0  0  0  0  0  0  0  0
   -6.0658  -11.4935    0.0000 O   0  0  0  0  0  0  0  0  0  0  0  0
   -6.4792  -10.0516    0.0000 C   0  0  0  0  0  0  0  0  0  0  0  0
   -7.9347   -9.6888    0.0000 C   0  0  0  0  0  0  0  0  0  0  0  0
   -9.0838  -10.6529    0.0000 N   0  0  0  0  0  0  0  0  0  0  0  0
  -10.3558   -9.8581    0.0000 N   0  0  0  0  0  0  0  0  0  0  0  0
   -9.9929   -8.4026    0.0000 N   0  0  0  0  0  0  0  0  0  0  0  0
   -8.4966   -8.2980    0.0000 N   0  0  0  0  0  0  0  0  0  0  0  0
   -7.7017   -7.0259    0.0000 C   0  0  0  0  0  0  0  0  0  0  0  0
   -6.2026   -7.0783    0.0000 C   0  0  0  0  0  0  0  0  0  0  0  0
   -5.4077   -5.8062    0.0000 C   0  0  0  0  0  0  0  0  0  0  0  0
   -6.1120   -4.4818    0.0000 C   0  0  0  0  0  0  0  0  0  0  0  0
   -5.3171   -3.2097    0.0000 C   0  0  0  0  0  0  0  0  0  0  0  0
   -3.8499   -3.5216    0.0000 C   0  0  0  0  0  0  0  0  0  0  0  0
   -2.5254   -2.8174    0.0000 C   0  0  0  0  0  0  0  0  0  0  0  0
   -1.9635   -1.4266    0.0000 C   0  0  0  0  0  0  0  0  0  0  0  0
   -0.7500   -2.3083    0.0000 C   0  0  0  0  0  0  0  0  0  0  0  0
    0.7500   -2.3083    0.0000 C   0  0  0  0  0  0  0  0  0  0  0  0
    1.9635   -1.4266    0.0000 C   0  0  0  0  0  0  0  0  0  0  0  0
    2.4271    0.0000    0.0000 C   0  0  0  0  0  0  0  0  0  0  0  0
    1.9635    1.4266    0.0000 C   0  0  0  0  0  0  0  0  0  0  0  0
    0.7500    2.3083    0.0000 C   0  0  0  0  0  0  0  0  0  0  0  0
   -0.7500    2.3083    0.0000 C   0  0  0  0  0  0  0  0  0  0  0  0
   -1.9635    1.4266    0.0000 C   0  0  0  0  0  0  0  0  0  0  0  0
   -2.4271    0.0000    0.0000 C   0  0  0  0  0  0  0  0  0  0  0  0
   -3.6991    0.7949    0.0000 N   0  0  0  0  0  0  0  0  0  0  0  0
   -5.1845    0.5861    0.0000 N   0  0  0  0  0  0  0  0  0  0  0  0
   -6.1882   -0.5286    0.0000 N   0  0  0  0  0  0  0  0  0  0  0  0
   -6.2406   -2.0277    0.0000 N   0  0  0  0  0  0  0  0  0  0  0  0
   -7.6110   -4.4294    0.0000 C   0  0  0  0  0  0  0  0  0  0  0  0
   -8.4059   -5.7015    0.0000 C   0  0  0  0  0  0  0  0  0  0  0  0
   -9.9050   -5.6491    0.0000 C   0  0  0  0  0  0  0  0  0  0  0  0
  -10.8285   -6.8312    0.0000 C   0  0  0  0  0  0  0  0  0  0  0  0
  -12.2380   -6.3181    0.0000 C   0  0  0  0  0  0  0  0  0  0  0  0
  -12.1857   -4.8190    0.0000 C   0  0  0  0  0  0  0  0  0  0  0  0
  -13.3677   -3.8956    0.0000 C   0  0  0  0  0  0  0  0  0  0  0  0
  -13.1589   -2.4102    0.0000 C   0  0  0  0  0  0  0  0  0  0  0  0
  -14.3410   -1.4867    0.0000 C   0  0  0  0  0  0  0  0  0  0  0  0
  -15.7317   -2.0486    0.0000 C   0  0  0  0  0  0  0  0  0  0  0  0
  -15.9405   -3.5340    0.0000 C   0  0  0  0  0  0  0  0  0  0  0  0
  -14.7585   -4.4575    0.0000 C   0  0  0  0  0  0  0  0  0  0  0  0
  -10.7438   -4.4056    0.0000 C   0  0  0  0  0  0  0  0  0  0  0  0
  -10.2308   -2.9961    0.0000 O   0  0  0  0  0  0  0  0  0  0  0  0
   -4.3058  -13.3252    0.0000 N   0  0  0  0  0  0  0  0  0  0  0  0
   -2.9676  -14.0028    0.0000 C   0  0  0  0  0  0  0  0  0  0  0  0
   -2.9975  -15.5025    0.0000 O   0  0  0  0  0  0  0  0  0  0  0  0
   -1.6034  -13.3791    0.0000 C   0  0  0  0  0  0  0  0  0  0  0  0
  1  2  1  0
  2  3  1  0
  3  4  2  0
  4  5  1  0
  5  6  2  0
  6  7  1  0
  7  8  1  0
  8  9  1  0
  9 10  2  0
 10 11  1  0
 11 12  2  0
 12 13  1  0
 13 14  1  0
 14 15  2  0
 15 16  1  0
 16 17  2  0
 17 18  1  0
 18 19  2  0
 19 20  1  0
 20 21  2  0
 21 22  1  0
 22 23  2  0
 23 24  1  0
 24 25  2  0
 25 26  1  0
 26 27  2  0
 27 28  1  0
 28 29  2  0
 29 30  1  0
 30 31  2  0
 31 32  1  0
 32 33  2  0
 33 34  1  0
 17 35  1  0
 35 36  2  0
 36 37  1  0
 37 38  2  0
 38 39  1  0
 39 40  2  0
 40 41  1  0
 41 42  2  0
 42 43  1  0
 43 44  2  0
 44 45  1  0
 45 46  2  0
 40 47  1  0
 47 48  2  0
  6 49  1  0
 49 50  1  0
 50 51  2  0
 50 52  1  0
 52  3  1  0
 13  9  1  0
 36 14  1  0
 47 37  1  0
 34 18  1  0
 46 41  1  0
 30 21  1  0
 34 24  1  0
M  END
>  <Title>  (881) 
idABHWgen8

$$$$

     RDKit          2D

 58 66  0  0  0  0  0  0  0  0999 V2000
    1.0174   -4.3319    0.0000 C   0  0  0  0  0  0  0  0  0  0  0  0
   -0.3175   -3.6477    0.0000 C   0  0  0  0  0  0  0  0  0  0  0  0
   -1.7369   -4.1325    0.0000 C   0  0  0  0  0  0  0  0  0  0  0  0
   -2.8666   -3.1456    0.0000 C   0  0  0  0  0  0  0  0  0  0  0  0
   -2.5767   -1.6739    0.0000 C   0  0  0  0  0  0  0  0  0  0  0  0
   -3.7063   -0.6870    0.0000 N   0  0  0  0  0  0  0  0  0  0  0  0
   -3.5718    0.8070    0.0000 N   0  0  0  0  0  0  0  0  0  0  0  0
   -4.9511    1.3965    0.0000 N   0  0  0  0  0  0  0  0  0  0  0  0
   -5.9380    0.2669    0.0000 N   0  0  0  0  0  0  0  0  0  0  0  0
   -5.1687   -1.0207    0.0000 C   0  0  0  0  0  0  0  0  0  0  0  0
   -5.7582   -2.4000    0.0000 C   0  0  0  0  0  0  0  0  0  0  0  0
   -7.2567   -2.4673    0.0000 C   0  0  0  0  0  0  0  0  0  0  0  0
   -8.1384   -3.6809    0.0000 C   0  0  0  0  0  0  0  0  0  0  0  0
   -7.7393   -5.1268    0.0000 C   0  0  0  0  0  0  0  0  0  0  0  0
   -8.8689   -6.1137    0.0000 C   0  0  0  0  0  0  0  0  0  0  0  0
   -6.3600   -5.7163    0.0000 C   0  0  0  0  0  0  0  0  0  0  0  0
   -6.2927   -7.2148    0.0000 O   0  0  0  0  0  0  0  0  0  0  0  0
   -5.0391   -5.0055    0.0000 N   0  0  0  0  0  0  0  0  0  0  0  0
   -3.7182   -5.7163    0.0000 N   0  0  0  0  0  0  0  0  0  0  0  0
   -2.6340   -4.6797    0.0000 N   0  0  0  0  0  0  0  0  0  0  0  0
   -3.2849   -3.3283    0.0000 N   0  0  0  0  0  0  0  0  0  0  0  0
   -4.7713   -3.5296    0.0000 C   0  0  0  0  0  0  0  0  0  0  0  0
   -1.1572   -1.1891    0.0000 C   0  0  0  0  0  0  0  0  0  0  0  0
   -0.8673    0.2827    0.0000 N   0  0  0  0  0  0  0  0  0  0  0  0
    0.5522    0.7675    0.0000 N   0  0  0  0  0  0  0  0  0  0  0  0
    0.8421    2.2392    0.0000 N   0  0  0  0  0  0  0  0  0  0  0  0
   -0.2875    3.2261    0.0000 N   0  0  0  0  0  0  0  0  0  0  0  0
   -1.7070    2.7413    0.0000 N   0  0  0  0  0  0  0  0  0  0  0  0
   -1.9969    1.2696    0.0000 N   0  0  0  0  0  0  0  0  0  0  0  0
   -3.4164    0.7848    0.0000 C   0  0  0  0  0  0  0  0  0  0  0  0
   -4.5460    1.7717    0.0000 C   0  0  0  0  0  0  0  0  0  0  0  0
   -5.9655    1.2869    0.0000 C   0  0  0  0  0  0  0  0  0  0  0  0
   -6.2554   -0.1849    0.0000 C   0  0  0  0  0  0  0  0  0  0  0  0
   -7.6749   -0.6697    0.0000 C   0  0  0  0  0  0  0  0  0  0  0  0
   -8.1170   -2.1030    0.0000 N   0  0  0  0  0  0  0  0  0  0  0  0
   -9.6168   -2.1255    0.0000 N   0  0  0  0  0  0  0  0  0  0  0  0
  -10.1016   -0.7060    0.0000 N   0  0  0  0  0  0  0  0  0  0  0  0
   -8.9014    0.1937    0.0000 N   0  0  0  0  0  0  0  0  0  0  0  0
   -8.9239    1.6936    0.0000 C   0  0  0  0  0  0  0  0  0  0  0  0
   -7.6362    2.4629    0.0000 C   0  0  0  0  0  0  0  0  0  0  0  0
   -7.6587    3.9628    0.0000 C   0  0  0  0  0  0  0  0  0  0  0  0
   -8.9688    4.6932    0.0000 C   0  0  0  0  0  0  0  0  0  0  0  0
  -10.2564    3.9239    0.0000 C   0  0  0  0  0  0  0  0  0  0  0  0
  -10.2340    2.4241    0.0000 C   0  0  0  0  0  0  0  0  0  0  0  0
   -5.1258   -1.1718    0.0000 C   0  0  0  0  0  0  0  0  0  0  0  0
   -3.7063   -0.6870    0.0000 C   0  0  0  0  0  0  0  0  0  0  0  0
   -2.5767   -1.6739    0.0000 C   0  0  0  0  0  0  0  0  0  0  0  0
   -2.8666   -3.1456    0.0000 C   0  0  0  0  0  0  0  0  0  0  0  0
   -1.7369   -4.1325    0.0000 C   0  0  0  0  0  0  0  0  0  0  0  0
   -0.3175   -3.6477    0.0000 C   0  0  0  0  0  0  0  0  0  0  0  0
    0.8122   -4.6346    0.0000 C   0  0  0  0  0  0  0  0  0  0  0  0
    2.2316   -4.1498    0.0000 O   0  0  0  0  0  0  0  0  0  0  0  0
    0.5223   -6.1063    0.0000 N   0  0  0  0  0  0  0  0  0  0  0  0
    1.6519   -7.0932    0.0000 O   0  0  0  0  0  0  0  0  0  0  0  0
   -0.0276   -2.1760    0.0000 C   0  0  0  0  0  0  0  0  0  0  0  0
   -1.1572   -1.1891    0.0000 C   0  0  0  0  0  0  0  0  0  0  0  0
   -0.5198    0.1688    0.0000 O   0  0  0  0  0  0  0  0  0  0  0  0
   -0.0276   -2.1760    0.0000 C   0  0  0  0  0  0  0  0  0  0  0  0
  1  2  1  0
  2  3  2  0
  3  4  1  0
  4  5  2  0
  5  6  1  0
  6  7  1  0
  7  8  2  0
  8  9  1  0
  9 10  2  0
 10 11  1  0
 11 12  2  0
 12 13  1  0
 13 14  2  0
 14 15  1  0
 14 16  1  0
 16 17  2  0
 16 18  1  0
 18 19  1  0
 19 20  2  0
 20 21  1  0
 21 22  2  0
  5 23  1  0
 23 24  1  0
 24 25  1  0
 25 26  2  0
 26 27  1  0
 27 28  2  0
 28 29  1  0
 29 30  1  0
 30 31  2  0
 31 32  1  0
 32 33  2  0
 33 34  1  0
 34 35  2  0
 35 36  1  0
 36 37  2  0
 37 38  1  0
 38 39  1  0
 39 40  2  0
 40 41  1  0
 41 42  2  0
 42 43  1  0
 43 44  2  0
 33 45  1  0
 45 46  2  0
 46 47  1  0
 47 48  2  0
 48 49  1  0
 49 50  2  0
 50 51  1  0
 51 52  2  0
 51 53  1  0
 53 54  1  0
 50 55  1  0
 55 56  1  0
 56 57  2  0
 23 58  2  0
 58  2  1  0
 10  6  1  0
 22 11  1  0
 29 24  1  0
 46 30  1  0
 56 47  1  0
 22 18  1  0
 38 34  1  0
 44 39  1  0
M  END
>  <Title>  (882) 
idABHXgen8

$$$$

     RDKit          2D

 64 74  0  0  0  0  0  0  0  0999 V2000
  -11.5327    3.6666    0.0000 C   0  0  0  0  0  0  0  0  0  0  0  0
  -10.1624    4.2767    0.0000 O   0  0  0  0  0  0  0  0  0  0  0  0
   -8.9488    3.3950    0.0000 C   0  0  0  0  0  0  0  0  0  0  0  0
   -9.1056    1.9033    0.0000 C   0  0  0  0  0  0  0  0  0  0  0  0
   -7.8921    1.0216    0.0000 C   0  0  0  0  0  0  0  0  0  0  0  0
   -6.5218    1.6317    0.0000 C   0  0  0  0  0  0  0  0  0  0  0  0
   -5.3083    0.7500    0.0000 C   0  0  0  0  0  0  0  0  0  0  0  0
   -5.3083   -0.7500    0.0000 N   0  0  0  0  0  0  0  0  0  0  0  0
   -3.8817   -1.2135    0.0000 N   0  0  0  0  0  0  0  0  0  0  0  0
   -3.0000    0.0000    0.0000 N   0  0  0  0  0  0  0  0  0  0  0  0
   -3.8817    1.2135    0.0000 N   0  0  0  0  0  0  0  0  0  0  0  0
   -3.4182    2.6401    0.0000 C   0  0  0  0  0  0  0  0  0  0  0  0
   -4.2998    3.8536    0.0000 C   0  0  0  0  0  0  0  0  0  0  0  0
   -3.4182    5.0672    0.0000 N   0  0  0  0  0  0  0  0  0  0  0  0
   -1.9916    4.6036    0.0000 N   0  0  0  0  0  0  0  0  0  0  0  0
   -1.9916    3.1036    0.0000 N   0  0  0  0  0  0  0  0  0  0  0  0
   -0.7780    2.2220    0.0000 C   0  0  0  0  0  0  0  0  0  0  0  0
   -0.9348    0.7302    0.0000 C   0  0  0  0  0  0  0  0  0  0  0  0
    0.2787   -0.1515    0.0000 C   0  0  0  0  0  0  0  0  0  0  0  0
    1.6490    0.4586    0.0000 C   0  0  0  0  0  0  0  0  0  0  0  0
    2.8625   -0.4231    0.0000 C   0  0  0  0  0  0  0  0  0  0  0  0
    4.2891    0.0404    0.0000 N   0  0  0  0  0  0  0  0  0  0  0  0
    5.1708   -1.1731    0.0000 N   0  0  0  0  0  0  0  0  0  0  0  0
    4.2891   -2.3866    0.0000 N   0  0  0  0  0  0  0  0  0  0  0  0
    2.8625   -1.9231    0.0000 N   0  0  0  0  0  0  0  0  0  0  0  0
    1.6490   -2.8048    0.0000 C   0  0  0  0  0  0  0  0  0  0  0  0
    0.2787   -2.1946    0.0000 C   0  0  0  0  0  0  0  0  0  0  0  0
   -0.9348   -3.0763    0.0000 C   0  0  0  0  0  0  0  0  0  0  0  0
   -0.7780   -4.5681    0.0000 C   0  0  0  0  0  0  0  0  0  0  0  0
   -1.9916   -5.4498    0.0000 C   0  0  0  0  0  0  0  0  0  0  0  0
   -3.3619   -4.8397    0.0000 C   0  0  0  0  0  0  0  0  0  0  0  0
   -4.5754   -5.7214    0.0000 C   0  0  0  0  0  0  0  0  0  0  0  0
   -4.4186   -7.2131    0.0000 C   0  0  0  0  0  0  0  0  0  0  0  0
   -3.0483   -7.8232    0.0000 C   0  0  0  0  0  0  0  0  0  0  0  0
   -1.8348   -6.9416    0.0000 C   0  0  0  0  0  0  0  0  0  0  0  0
    0.5923   -5.1782    0.0000 C   0  0  0  0  0  0  0  0  0  0  0  0
    1.8058   -4.2965    0.0000 C   0  0  0  0  0  0  0  0  0  0  0  0
    1.8058    1.9504    0.0000 C   0  0  0  0  0  0  0  0  0  0  0  0
    0.5923    2.8321    0.0000 C   0  0  0  0  0  0  0  0  0  0  0  0
    0.7491    4.3238    0.0000 C   0  0  0  0  0  0  0  0  0  0  0  0
    2.1194    4.9340    0.0000 C   0  0  0  0  0  0  0  0  0  0  0  0
    2.2762    6.4257    0.0000 C   0  0  0  0  0  0  0  0  0  0  0  0
    1.0627    7.3074    0.0000 C   0  0  0  0  0  0  0  0  0  0  0  0
    1.2194    8.7992    0.0000 C   0  0  0  0  0  0  0  0  0  0  0  0
    0.1047    9.8029    0.0000 N   0  0  0  0  0  0  0  0  0  0  0  0
    0.7148   11.1732    0.0000 N   0  0  0  0  0  0  0  0  0  0  0  0
    2.2066   11.0164    0.0000 N   0  0  0  0  0  0  0  0  0  0  0  0
    2.5185    9.5492    0.0000 N   0  0  0  0  0  0  0  0  0  0  0  0
    3.8888    8.9391    0.0000 C   0  0  0  0  0  0  0  0  0  0  0  0
    4.2007    7.4719    0.0000 N   0  0  0  0  0  0  0  0  0  0  0  0
    5.6925    7.3151    0.0000 N   0  0  0  0  0  0  0  0  0  0  0  0
    6.3026    8.6854    0.0000 N   0  0  0  0  0  0  0  0  0  0  0  0
    5.1878    9.6891    0.0000 N   0  0  0  0  0  0  0  0  0  0  0  0
    5.3446   11.1809    0.0000 C   0  0  0  0  0  0  0  0  0  0  0  0
    6.7150   11.7910    0.0000 C   0  0  0  0  0  0  0  0  0  0  0  0
    6.8717   13.2828    0.0000 C   0  0  0  0  0  0  0  0  0  0  0  0
    5.6582   14.1644    0.0000 C   0  0  0  0  0  0  0  0  0  0  0  0
    4.2879   13.5543    0.0000 C   0  0  0  0  0  0  0  0  0  0  0  0
    4.1311   12.0625    0.0000 C   0  0  0  0  0  0  0  0  0  0  0  0
   -0.3077    6.6973    0.0000 C   0  0  0  0  0  0  0  0  0  0  0  0
   -1.5212    7.5790    0.0000 O   0  0  0  0  0  0  0  0  0  0  0  0
   -0.4645    5.2055    0.0000 N   0  0  0  0  0  0  0  0  0  0  0  0
   -6.3650    3.1235    0.0000 N   0  0  0  0  0  0  0  0  0  0  0  0
   -7.5785    4.0051    0.0000 C   0  0  0  0  0  0  0  0  0  0  0  0
  1  2  1  0
  2  3  1  0
  3  4  2  0
  4  5  1  0
  5  6  2  0
  6  7  1  0
  7  8  2  0
  8  9  1  0
  9 10  2  0
 10 11  1  0
 11 12  1  0
 12 13  2  0
 13 14  1  0
 14 15  2  0
 15 16  1  0
 16 17  1  0
 17 18  2  0
 18 19  1  0
 19 20  2  0
 20 21  1  0
 21 22  2  0
 22 23  1  0
 23 24  2  0
 24 25  1  0
 25 26  1  0
 26 27  2  0
 27 28  1  0
 28 29  2  0
 29 30  1  0
 30 31  2  0
 31 32  1  0
 32 33  2  0
 33 34  1  0
 34 35  2  0
 29 36  1  0
 36 37  2  0
 20 38  1  0
 38 39  2  0
 39 40  1  0
 40 41  2  0
 41 42  1  0
 42 43  2  0
 43 44  1  0
 44 45  2  0
 45 46  1  0
 46 47  2  0
 47 48  1  0
 48 49  1  0
 49 50  2  0
 50 51  1  0
 51 52  2  0
 52 53  1  0
 53 54  1  0
 54 55  2  0
 55 56  1  0
 56 57  2  0
 57 58  1  0
 58 59  2  0
 43 60  1  0
 60 61  2  0
 60 62  1  0
  6 63  1  0
 63 64  1  0
 64  3  1  0
 11  7  1  0
 16 12  1  0
 39 17  1  0
 62 40  1  0
 25 21  1  0
 37 26  1  0
 48 44  1  0
 53 49  1  0
 59 54  1  0
 35 30  1  0
M  END
>  <Title>  (883) 
idABHYgen8

$$$$

     RDKit          2D

 28 31  0  0  0  0  0  0  0  0999 V2000
   10.3271    1.5639    0.0000 C   0  0  0  0  0  0  0  0  0  0  0  0
    8.8298    1.4742    0.0000 C   0  0  0  0  0  0  0  0  0  0  0  0
    8.0034    2.7260    0.0000 C   0  0  0  0  0  0  0  0  0  0  0  0
    6.5061    2.6363    0.0000 C   0  0  0  0  0  0  0  0  0  0  0  0
    5.8351    1.2947    0.0000 C   0  0  0  0  0  0  0  0  0  0  0  0
    4.3378    1.2050    0.0000 C   0  0  0  0  0  0  0  0  0  0  0  0
    3.5115    2.4569    0.0000 C   0  0  0  0  0  0  0  0  0  0  0  0
    4.0385    3.8613    0.0000 N   0  0  0  0  0  0  0  0  0  0  0  0
    2.8658    4.7965    0.0000 N   0  0  0  0  0  0  0  0  0  0  0  0
    1.6139    3.9701    0.0000 N   0  0  0  0  0  0  0  0  0  0  0  0
    2.0130    2.5242    0.0000 N   0  0  0  0  0  0  0  0  0  0  0  0
    1.0777    1.3515    0.0000 C   0  0  0  0  0  0  0  0  0  0  0  0
    1.7286    0.0000    0.0000 C   0  0  0  0  0  0  0  0  0  0  0  0
    1.0777   -1.3515    0.0000 C   0  0  0  0  0  0  0  0  0  0  0  0
   -0.3846   -1.6852    0.0000 N   0  0  0  0  0  0  0  0  0  0  0  0
   -1.5574   -0.7500    0.0000 N   0  0  0  0  0  0  0  0  0  0  0  0
   -1.5574    0.7500    0.0000 N   0  0  0  0  0  0  0  0  0  0  0  0
   -0.3846    1.6852    0.0000 N   0  0  0  0  0  0  0  0  0  0  0  0
   -0.7184    3.1476    0.0000 C   0  0  0  0  0  0  0  0  0  0  0  0
    0.3812    4.1679    0.0000 C   0  0  0  0  0  0  0  0  0  0  0  0
    0.0474    5.6303    0.0000 C   0  0  0  0  0  0  0  0  0  0  0  0
   -1.3860    6.0724    0.0000 C   0  0  0  0  0  0  0  0  0  0  0  0
   -1.7198    7.5348    0.0000 C   0  0  0  0  0  0  0  0  0  0  0  0
   -2.4856    5.0522    0.0000 C   0  0  0  0  0  0  0  0  0  0  0  0
   -3.9189    5.4943    0.0000 O   0  0  0  0  0  0  0  0  0  0  0  0
   -2.1518    3.5898    0.0000 N   0  0  0  0  0  0  0  0  0  0  0  0
    6.6615    0.0429    0.0000 N   0  0  0  0  0  0  0  0  0  0  0  0
    8.1588    0.1326    0.0000 C   0  0  0  0  0  0  0  0  0  0  0  0
  1  2  1  0
  2  3  2  0
  3  4  1  0
  4  5  2  0
  5  6  1  0
  6  7  1  0
  7  8  2  0
  8  9  1  0
  9 10  2  0
 10 11  1  0
 11 12  1  0
 12 13  2  0
 13 14  1  0
 14 15  2  0
 15 16  1  0
 16 17  2  0
 17 18  1  0
 18 19  1  0
 19 20  2  0
 20 21  1  0
 21 22  2  0
 22 23  1  0
 22 24  1  0
 24 25  2  0
 24 26  1  0
  5 27  1  0
 27 28  1  0
 28  2  1  0
 11  7  1  0
 18 12  1  0
 26 19  1  0
M  END
>  <Title>  (884) 
idABHZgen8

$$$$

     RDKit          2D

 20 22  0  0  0  0  0  0  0  0999 V2000
   -2.2502   -7.3547    0.0000 C   0  0  0  0  0  0  0  0  0  0  0  0
   -1.4392   -6.0928    0.0000 C   0  0  0  0  0  0  0  0  0  0  0  0
   -0.0000   -6.5154    0.0000 C   0  0  0  0  0  0  0  0  0  0  0  0
    1.4392   -6.0928    0.0000 C   0  0  0  0  0  0  0  0  0  0  0  0
    2.4215   -4.9592    0.0000 C   0  0  0  0  0  0  0  0  0  0  0  0
    2.6350   -3.4744    0.0000 C   0  0  0  0  0  0  0  0  0  0  0  0
    4.1252   -3.3035    0.0000 C   0  0  0  0  0  0  0  0  0  0  0  0
    4.4231   -1.8333    0.0000 C   0  0  0  0  0  0  0  0  0  0  0  0
    3.1170   -1.0957    0.0000 C   0  0  0  0  0  0  0  0  0  0  0  0
    2.0119   -2.1100    0.0000 C   0  0  0  0  0  0  0  0  0  0  0  0
    0.7500   -1.2990    0.0000 C   0  0  0  0  0  0  0  0  0  0  0  0
    1.5000    0.0000    0.0000 C   0  0  0  0  0  0  0  0  0  0  0  0
    0.7500    1.2990    0.0000 C   0  0  0  0  0  0  0  0  0  0  0  0
   -0.7500    1.2990    0.0000 C   0  0  0  0  0  0  0  0  0  0  0  0
   -1.5000    0.0000    0.0000 C   0  0  0  0  0  0  0  0  0  0  0  0
   -0.7500   -1.2990    0.0000 C   0  0  0  0  0  0  0  0  0  0  0  0
   -2.0119   -2.1100    0.0000 N   0  0  0  0  0  0  0  0  0  0  0  0
   -2.6350   -3.4744    0.0000 C   0  0  0  0  0  0  0  0  0  0  0  0
   -4.1197   -3.2610    0.0000 O   0  0  0  0  0  0  0  0  0  0  0  0
   -2.4215   -4.9592    0.0000 C   0  0  0  0  0  0  0  0  0  0  0  0
  1  2  1  0
  2  3  2  0
  3  4  1  0
  4  5  2  0
  5  6  2  0
  6  7  1  0
  7  8  2  0
  8  9  1  0
  9 10  2  0
 10 11  1  0
 11 12  2  0
 12 13  1  0
 13 14  2  0
 14 15  1  0
 15 16  2  0
 16 17  1  0
 17 18  1  0
 18 19  2  0
 18 20  1  0
 20  2  1  0
 10  6  1  0
 16 11  1  0
M  END
>  <Title>  (885) 
idABIAgen8

$$$$

     RDKit          2D

 42 47  0  0  0  0  0  0  0  0999 V2000
    3.0000    0.0000    0.0000 C   0  0  0  0  0  0  0  0  0  0  0  0
    1.5000    0.0000    0.0000 C   0  0  0  0  0  0  0  0  0  0  0  0
    0.7500    1.2990    0.0000 C   0  0  0  0  0  0  0  0  0  0  0  0
   -0.7500    1.2990    0.0000 C   0  0  0  0  0  0  0  0  0  0  0  0
   -1.5000    0.0000    0.0000 C   0  0  0  0  0  0  0  0  0  0  0  0
   -3.0000    0.0000    0.0000 N   0  0  0  0  0  0  0  0  0  0  0  0
   -3.8817   -1.2135    0.0000 N   0  0  0  0  0  0  0  0  0  0  0  0
   -5.3083   -0.7500    0.0000 N   0  0  0  0  0  0  0  0  0  0  0  0
   -5.3083    0.7500    0.0000 N   0  0  0  0  0  0  0  0  0  0  0  0
   -3.8817    1.2135    0.0000 C   0  0  0  0  0  0  0  0  0  0  0  0
   -3.4182    2.6401    0.0000 C   0  0  0  0  0  0  0  0  0  0  0  0
   -1.9509    2.9520    0.0000 C   0  0  0  0  0  0  0  0  0  0  0  0
   -1.4874    4.3786    0.0000 C   0  0  0  0  0  0  0  0  0  0  0  0
   -2.4911    5.4933    0.0000 C   0  0  0  0  0  0  0  0  0  0  0  0
   -3.9583    5.1814    0.0000 C   0  0  0  0  0  0  0  0  0  0  0  0
   -4.4218    3.7548    0.0000 C   0  0  0  0  0  0  0  0  0  0  0  0
   -5.8891    3.4430    0.0000 N   0  0  0  0  0  0  0  0  0  0  0  0
   -6.4992    2.0726    0.0000 N   0  0  0  0  0  0  0  0  0  0  0  0
   -7.9910    2.2294    0.0000 N   0  0  0  0  0  0  0  0  0  0  0  0
   -8.3028    3.6967    0.0000 N   0  0  0  0  0  0  0  0  0  0  0  0
   -7.0038    4.4467    0.0000 C   0  0  0  0  0  0  0  0  0  0  0  0
   -6.8470    5.9384    0.0000 N   0  0  0  0  0  0  0  0  0  0  0  0
   -8.0605    6.8201    0.0000 C   0  0  0  0  0  0  0  0  0  0  0  0
   -9.4308    6.2100    0.0000 O   0  0  0  0  0  0  0  0  0  0  0  0
   -7.9037    8.3119    0.0000 C   0  0  0  0  0  0  0  0  0  0  0  0
   -6.5334    8.9220    0.0000 C   0  0  0  0  0  0  0  0  0  0  0  0
   -6.3766   10.4138    0.0000 C   0  0  0  0  0  0  0  0  0  0  0  0
   -7.5901   11.2955    0.0000 C   0  0  0  0  0  0  0  0  0  0  0  0
   -7.4333   12.7872    0.0000 C   0  0  0  0  0  0  0  0  0  0  0  0
   -8.9605   10.6854    0.0000 C   0  0  0  0  0  0  0  0  0  0  0  0
  -10.1740   11.5670    0.0000 O   0  0  0  0  0  0  0  0  0  0  0  0
   -9.1173    9.1936    0.0000 N   0  0  0  0  0  0  0  0  0  0  0  0
   -0.7500   -1.2990    0.0000 C   0  0  0  0  0  0  0  0  0  0  0  0
   -1.5000   -2.5981    0.0000 C   0  0  0  0  0  0  0  0  0  0  0  0
   -3.0000   -2.5981    0.0000 C   0  0  0  0  0  0  0  0  0  0  0  0
   -3.7500   -3.8971    0.0000 C   0  0  0  0  0  0  0  0  0  0  0  0
   -3.0000   -5.1962    0.0000 C   0  0  0  0  0  0  0  0  0  0  0  0
   -3.7500   -6.4952    0.0000 C   0  0  0  0  0  0  0  0  0  0  0  0
   -1.5000   -5.1962    0.0000 O   0  0  0  0  0  0  0  0  0  0  0  0
   -0.7500   -3.8971    0.0000 C   0  0  0  0  0  0  0  0  0  0  0  0
    0.7500   -3.8971    0.0000 O   0  0  0  0  0  0  0  0  0  0  0  0
    0.7500   -1.2990    0.0000 C   0  0  0  0  0  0  0  0  0  0  0  0
  1  2  1  0
  2  3  2  0
  3  4  1  0
  4  5  2  0
  5  6  1  0
  6  7  1  0
  7  8  2  0
  8  9  1  0
  9 10  2  0
 10 11  1  0
 11 12  1  0
 12 13  1  0
 13 14  1  0
 14 15  1  0
 15 16  1  0
 16 17  1  0
 17 18  1  0
 18 19  2  0
 19 20  1  0
 20 21  2  0
 21 22  1  0
 22 23  1  0
 23 24  2  0
 23 25  1  0
 25 26  2  0
 26 27  1  0
 27 28  2  0
 28 29  1  0
 28 30  1  0
 30 31  2  0
 30 32  1  0
  5 33  1  0
 33 34  1  0
 34 35  2  0
 35 36  1  0
 36 37  2  0
 37 38  1  0
 37 39  1  0
 39 40  1  0
 40 41  2  0
 33 42  2  0
 42  2  1  0
 10  6  1  0
 16 11  1  0
 21 17  1  0
 32 25  1  0
 40 34  1  0
M  END
>  <Title>  (886) 
idABIBgen8

$$$$

     RDKit          2D

 11 11  0  0  0  0  0  0  0  0999 V2000
    3.9271    0.0000    0.0000 C   0  0  0  0  0  0  0  0  0  0  0  0
    2.4271    0.0000    0.0000 C   0  0  0  0  0  0  0  0  0  0  0  0
    1.9635   -1.4266    0.0000 C   0  0  0  0  0  0  0  0  0  0  0  0
    0.7500   -2.3083    0.0000 C   0  0  0  0  0  0  0  0  0  0  0  0
   -0.7500   -2.3083    0.0000 C   0  0  0  0  0  0  0  0  0  0  0  0
   -1.9635   -1.4266    0.0000 C   0  0  0  0  0  0  0  0  0  0  0  0
   -2.4271    0.0000    0.0000 C   0  0  0  0  0  0  0  0  0  0  0  0
   -1.9635    1.4266    0.0000 C   0  0  0  0  0  0  0  0  0  0  0  0
   -0.7500    2.3083    0.0000 C   0  0  0  0  0  0  0  0  0  0  0  0
    0.7500    2.3083    0.0000 C   0  0  0  0  0  0  0  0  0  0  0  0
    1.9635    1.4266    0.0000 C   0  0  0  0  0  0  0  0  0  0  0  0
  1  2  1  0
  2  3  2  0
  3  4  1  0
  4  5  2  0
  5  6  1  0
  6  7  2  0
  7  8  1  0
  8  9  2  0
  9 10  1  0
 10 11  2  0
 11  2  1  0
M  END
>  <Title>  (887) 
idABICgen8

$$$$

     RDKit          2D

 43 48  0  0  0  0  0  0  0  0999 V2000
  -11.2943    3.9534    0.0000 C   0  0  0  0  0  0  0  0  0  0  0  0
   -9.9953    3.2034    0.0000 C   0  0  0  0  0  0  0  0  0  0  0  0
  -10.1910    1.7162    0.0000 C   0  0  0  0  0  0  0  0  0  0  0  0
   -9.2779    0.5262    0.0000 C   0  0  0  0  0  0  0  0  0  0  0  0
   -7.7907    0.3304    0.0000 C   0  0  0  0  0  0  0  0  0  0  0  0
   -6.6007    1.2435    0.0000 C   0  0  0  0  0  0  0  0  0  0  0  0
   -6.4049    2.7307    0.0000 C   0  0  0  0  0  0  0  0  0  0  0  0
   -4.9560    3.1189    0.0000 N   0  0  0  0  0  0  0  0  0  0  0  0
   -4.5678    4.5678    0.0000 N   0  0  0  0  0  0  0  0  0  0  0  0
   -3.1189    4.9560    0.0000 N   0  0  0  0  0  0  0  0  0  0  0  0
   -2.0583    3.8954    0.0000 N   0  0  0  0  0  0  0  0  0  0  0  0
   -2.4465    2.4465    0.0000 N   0  0  0  0  0  0  0  0  0  0  0  0
   -3.8954    2.0583    0.0000 N   0  0  0  0  0  0  0  0  0  0  0  0
   -4.2836    0.6094    0.0000 C   0  0  0  0  0  0  0  0  0  0  0  0
   -5.7325    0.2211    0.0000 C   0  0  0  0  0  0  0  0  0  0  0  0
   -6.1207   -1.2278    0.0000 C   0  0  0  0  0  0  0  0  0  0  0  0
   -5.0601   -2.2884    0.0000 C   0  0  0  0  0  0  0  0  0  0  0  0
   -5.4483   -3.7373    0.0000 C   0  0  0  0  0  0  0  0  0  0  0  0
   -4.5043   -4.9030    0.0000 N   0  0  0  0  0  0  0  0  0  0  0  0
   -5.3213   -6.1610    0.0000 N   0  0  0  0  0  0  0  0  0  0  0  0
   -6.7701   -5.7728    0.0000 N   0  0  0  0  0  0  0  0  0  0  0  0
   -6.8487   -4.2749    0.0000 N   0  0  0  0  0  0  0  0  0  0  0  0
   -8.1067   -3.4579    0.0000 C   0  0  0  0  0  0  0  0  0  0  0  0
   -8.0282   -1.9600    0.0000 C   0  0  0  0  0  0  0  0  0  0  0  0
   -9.2862   -1.1430    0.0000 C   0  0  0  0  0  0  0  0  0  0  0  0
  -10.6227   -1.8240    0.0000 C   0  0  0  0  0  0  0  0  0  0  0  0
  -10.7012   -3.3219    0.0000 N   0  0  0  0  0  0  0  0  0  0  0  0
   -9.4432   -4.1389    0.0000 C   0  0  0  0  0  0  0  0  0  0  0  0
   -3.6112   -1.9002    0.0000 C   0  0  0  0  0  0  0  0  0  0  0  0
   -3.2229   -0.4513    0.0000 C   0  0  0  0  0  0  0  0  0  0  0  0
   -1.7740   -0.0631    0.0000 C   0  0  0  0  0  0  0  0  0  0  0  0
   -0.7134   -1.1237    0.0000 C   0  0  0  0  0  0  0  0  0  0  0  0
    0.7355   -0.7355    0.0000 C   0  0  0  0  0  0  0  0  0  0  0  0
    1.1237    0.7134    0.0000 C   0  0  0  0  0  0  0  0  0  0  0  0
    2.5726    1.1016    0.0000 C   0  0  0  0  0  0  0  0  0  0  0  0
    3.6333    0.0410    0.0000 O   0  0  0  0  0  0  0  0  0  0  0  0
    2.9608    2.5505    0.0000 N   0  0  0  0  0  0  0  0  0  0  0  0
    4.4097    2.9387    0.0000 O   0  0  0  0  0  0  0  0  0  0  0  0
    0.0631    1.7740    0.0000 C   0  0  0  0  0  0  0  0  0  0  0  0
   -1.3858    1.3858    0.0000 C   0  0  0  0  0  0  0  0  0  0  0  0
   -7.3181    3.9207    0.0000 N   0  0  0  0  0  0  0  0  0  0  0  0
   -8.8052    4.1165    0.0000 C   0  0  0  0  0  0  0  0  0  0  0  0
   -9.1935    5.5654    0.0000 O   0  0  0  0  0  0  0  0  0  0  0  0
  1  2  1  0
  2  3  2  0
  3  4  1  0
  4  5  2  0
  5  6  1  0
  6  7  2  0
  7  8  1  0
  8  9  1  0
  9 10  2  0
 10 11  1  0
 11 12  2  0
 12 13  1  0
 13 14  1  0
 14 15  2  0
 15 16  1  0
 16 17  2  0
 17 18  1  0
 18 19  2  0
 19 20  1  0
 20 21  2  0
 21 22  1  0
 22 23  1  0
 23 24  2  0
 24 25  1  0
 25 26  2  0
 26 27  1  0
 27 28  2  0
 17 29  1  0
 29 30  2  0
 30 31  1  0
 31 32  2  0
 32 33  1  0
 33 34  2  0
 34 35  1  0
 35 36  2  0
 35 37  1  0
 37 38  1  0
 34 39  1  0
 39 40  1  0
  7 41  1  0
 41 42  1  0
 42 43  2  0
 42  2  1  0
 13  8  1  0
 30 14  1  0
 40 31  1  0
 22 18  1  0
 28 23  1  0
M  END
>  <Title>  (888) 
idABIDgen8

$$$$

     RDKit          2D

 20 20  0  0  0  0  0  0  0  0999 V2000
    6.0567    0.0000    0.0000 C   0  0  0  0  0  0  0  0  0  0  0  0
    4.5567    0.0000    0.0000 N   0  0  0  0  0  0  0  0  0  0  0  0
    4.3098    1.4795    0.0000 C   0  0  0  0  0  0  0  0  0  0  0  0
    3.5958    2.7988    0.0000 C   0  0  0  0  0  0  0  0  0  0  0  0
    2.4923    3.8147    0.0000 C   0  0  0  0  0  0  0  0  0  0  0  0
    1.1186    4.4172    0.0000 C   0  0  0  0  0  0  0  0  0  0  0  0
   -0.3763    4.5411    0.0000 C   0  0  0  0  0  0  0  0  0  0  0  0
   -1.8304    4.1729    0.0000 C   0  0  0  0  0  0  0  0  0  0  0  0
   -3.0861    3.3524    0.0000 C   0  0  0  0  0  0  0  0  0  0  0  0
   -4.0075    2.1687    0.0000 C   0  0  0  0  0  0  0  0  0  0  0  0
   -4.4945    0.7500    0.0000 C   0  0  0  0  0  0  0  0  0  0  0  0
   -4.4945   -0.7500    0.0000 C   0  0  0  0  0  0  0  0  0  0  0  0
   -4.0075   -2.1687    0.0000 C   0  0  0  0  0  0  0  0  0  0  0  0
   -3.0861   -3.3524    0.0000 C   0  0  0  0  0  0  0  0  0  0  0  0
   -1.8304   -4.1729    0.0000 C   0  0  0  0  0  0  0  0  0  0  0  0
   -0.3763   -4.5411    0.0000 C   0  0  0  0  0  0  0  0  0  0  0  0
    1.1186   -4.4172    0.0000 C   0  0  0  0  0  0  0  0  0  0  0  0
    2.4923   -3.8147    0.0000 C   0  0  0  0  0  0  0  0  0  0  0  0
    3.5958   -2.7988    0.0000 C   0  0  0  0  0  0  0  0  0  0  0  0
    4.3098   -1.4795    0.0000 C   0  0  0  0  0  0  0  0  0  0  0  0
  1  2  1  0
  2  3  1  0
  3  4  2  0
  4  5  1  0
  5  6  2  0
  6  7  1  0
  7  8  2  0
  8  9  1  0
  9 10  2  0
 10 11  1  0
 11 12  2  0
 12 13  1  0
 13 14  2  0
 14 15  1  0
 15 16  2  0
 16 17  1  0
 17 18  2  0
 18 19  1  0
 19 20  2  0
 20  2  1  0
M  END
>  <Title>  (889) 
idABIEgen8

$$$$

     RDKit          2D

 18 19  0  0  0  0  0  0  0  0999 V2000
    4.8068    5.5474    0.0000 C   0  0  0  0  0  0  0  0  0  0  0  0
    3.8245    4.4138    0.0000 C   0  0  0  0  0  0  0  0  0  0  0  0
    4.4197    3.0369    0.0000 C   0  0  0  0  0  0  0  0  0  0  0  0
    3.7143    1.7131    0.0000 C   0  0  0  0  0  0  0  0  0  0  0  0
    2.2395    1.4392    0.0000 C   0  0  0  0  0  0  0  0  0  0  0  0
    2.6621    0.0000    0.0000 C   0  0  0  0  0  0  0  0  0  0  0  0
    2.2395   -1.4392    0.0000 C   0  0  0  0  0  0  0  0  0  0  0  0
    1.1059   -2.4215    0.0000 C   0  0  0  0  0  0  0  0  0  0  0  0
   -0.3789   -2.6350    0.0000 C   0  0  0  0  0  0  0  0  0  0  0  0
   -1.7433   -2.0119    0.0000 C   0  0  0  0  0  0  0  0  0  0  0  0
   -2.5543   -0.7500    0.0000 C   0  0  0  0  0  0  0  0  0  0  0  0
   -2.5543    0.7500    0.0000 C   0  0  0  0  0  0  0  0  0  0  0  0
   -1.7433    2.0119    0.0000 C   0  0  0  0  0  0  0  0  0  0  0  0
   -0.3789    2.6350    0.0000 C   0  0  0  0  0  0  0  0  0  0  0  0
    1.1059    2.4215    0.0000 C   0  0  0  0  0  0  0  0  0  0  0  0
    1.1671    3.9203    0.0000 C   0  0  0  0  0  0  0  0  0  0  0  0
   -0.1567    4.6257    0.0000 O   0  0  0  0  0  0  0  0  0  0  0  0
    2.3770    4.8069    0.0000 N   0  0  0  0  0  0  0  0  0  0  0  0
  1  2  1  0
  2  3  2  0
  3  4  1  0
  4  5  2  0
  5  6  1  0
  6  7  2  0
  7  8  1  0
  8  9  2  0
  9 10  1  0
 10 11  2  0
 11 12  1  0
 12 13  2  0
 13 14  1  0
 14 15  2  0
 15 16  1  0
 16 17  2  0
 16 18  1  0
 18  2  1  0
 15  5  1  0
M  END
>  <Title>  (890) 
idABIFgen8

$$$$

     RDKit          2D

 63 72  0  0  0  0  0  0  0  0999 V2000
   -3.7949   16.9184    0.0000 C   0  0  0  0  0  0  0  0  0  0  0  0
   -3.8622   15.4200    0.0000 C   0  0  0  0  0  0  0  0  0  0  0  0
   -2.5981   14.6124    0.0000 C   0  0  0  0  0  0  0  0  0  0  0  0
   -2.6654   13.1139    0.0000 C   0  0  0  0  0  0  0  0  0  0  0  0
   -3.9967   12.4230    0.0000 C   0  0  0  0  0  0  0  0  0  0  0  0
   -4.0640   10.9245    0.0000 C   0  0  0  0  0  0  0  0  0  0  0  0
   -5.3159   10.0981    0.0000 N   0  0  0  0  0  0  0  0  0  0  0  0
   -4.9169    8.6522    0.0000 N   0  0  0  0  0  0  0  0  0  0  0  0
   -3.4184    8.5849    0.0000 N   0  0  0  0  0  0  0  0  0  0  0  0
   -2.8913    9.9892    0.0000 N   0  0  0  0  0  0  0  0  0  0  0  0
   -1.4454   10.3883    0.0000 C   0  0  0  0  0  0  0  0  0  0  0  0
   -1.0680   11.8401    0.0000 C   0  0  0  0  0  0  0  0  0  0  0  0
    0.3780   12.2391    0.0000 C   0  0  0  0  0  0  0  0  0  0  0  0
    1.4465   11.1864    0.0000 C   0  0  0  0  0  0  0  0  0  0  0  0
    1.0692    9.7347    0.0000 C   0  0  0  0  0  0  0  0  0  0  0  0
   -0.3768    9.3356    0.0000 C   0  0  0  0  0  0  0  0  0  0  0  0
   -0.7542    7.8839    0.0000 C   0  0  0  0  0  0  0  0  0  0  0  0
   -2.2001    7.4848    0.0000 C   0  0  0  0  0  0  0  0  0  0  0  0
   -2.5775    6.0330    0.0000 C   0  0  0  0  0  0  0  0  0  0  0  0
   -1.5089    4.9804    0.0000 C   0  0  0  0  0  0  0  0  0  0  0  0
   -1.8863    3.5286    0.0000 C   0  0  0  0  0  0  0  0  0  0  0  0
   -0.8177    2.4759    0.0000 O   0  0  0  0  0  0  0  0  0  0  0  0
   -3.3323    3.1295    0.0000 N   0  0  0  0  0  0  0  0  0  0  0  0
   -3.7096    1.6778    0.0000 C   0  0  0  0  0  0  0  0  0  0  0  0
   -2.7570    0.5192    0.0000 N   0  0  0  0  0  0  0  0  0  0  0  0
   -3.5645   -0.7449    0.0000 N   0  0  0  0  0  0  0  0  0  0  0  0
   -5.0162   -0.3675    0.0000 N   0  0  0  0  0  0  0  0  0  0  0  0
   -5.1059    1.1298    0.0000 N   0  0  0  0  0  0  0  0  0  0  0  0
   -6.3700    1.9373    0.0000 C   0  0  0  0  0  0  0  0  0  0  0  0
   -6.3027    3.4358    0.0000 C   0  0  0  0  0  0  0  0  0  0  0  0
   -7.5668    4.2433    0.0000 C   0  0  0  0  0  0  0  0  0  0  0  0
   -8.8982    3.5524    0.0000 C   0  0  0  0  0  0  0  0  0  0  0  0
   -8.9655    2.0539    0.0000 C   0  0  0  0  0  0  0  0  0  0  0  0
   -7.7014    1.2463    0.0000 C   0  0  0  0  0  0  0  0  0  0  0  0
   -0.0630    5.3794    0.0000 C   0  0  0  0  0  0  0  0  0  0  0  0
    0.3144    6.8312    0.0000 C   0  0  0  0  0  0  0  0  0  0  0  0
    1.7603    7.2302    0.0000 C   0  0  0  0  0  0  0  0  0  0  0  0
    2.2874    8.6346    0.0000 N   0  0  0  0  0  0  0  0  0  0  0  0
    3.7859    8.5673    0.0000 N   0  0  0  0  0  0  0  0  0  0  0  0
    4.1849    7.1213    0.0000 N   0  0  0  0  0  0  0  0  0  0  0  0
    2.9331    6.2950    0.0000 N   0  0  0  0  0  0  0  0  0  0  0  0
    2.8658    4.7965    0.0000 C   0  0  0  0  0  0  0  0  0  0  0  0
    4.0385    3.8613    0.0000 C   0  0  0  0  0  0  0  0  0  0  0  0
    3.5115    2.4569    0.0000 C   0  0  0  0  0  0  0  0  0  0  0  0
    2.0130    2.5242    0.0000 C   0  0  0  0  0  0  0  0  0  0  0  0
    1.0777    1.3515    0.0000 C   0  0  0  0  0  0  0  0  0  0  0  0
   -0.3846    1.6852    0.0000 C   0  0  0  0  0  0  0  0  0  0  0  0
   -1.5574    0.7500    0.0000 N   0  0  0  0  0  0  0  0  0  0  0  0
   -1.5574   -0.7500    0.0000 N   0  0  0  0  0  0  0  0  0  0  0  0
   -0.3846   -1.6852    0.0000 N   0  0  0  0  0  0  0  0  0  0  0  0
    1.0777   -1.3515    0.0000 N   0  0  0  0  0  0  0  0  0  0  0  0
    1.7286    0.0000    0.0000 N   0  0  0  0  0  0  0  0  0  0  0  0
    3.2286    0.0000    0.0000 C   0  0  0  0  0  0  0  0  0  0  0  0
    3.9786    1.2990    0.0000 C   0  0  0  0  0  0  0  0  0  0  0  0
    5.4786    1.2990    0.0000 C   0  0  0  0  0  0  0  0  0  0  0  0
    6.2286    0.0000    0.0000 C   0  0  0  0  0  0  0  0  0  0  0  0
    5.4786   -1.2990    0.0000 C   0  0  0  0  0  0  0  0  0  0  0  0
    3.9786   -1.2990    0.0000 C   0  0  0  0  0  0  0  0  0  0  0  0
    1.6139    3.9701    0.0000 C   0  0  0  0  0  0  0  0  0  0  0  0
    0.2096    4.4972    0.0000 O   0  0  0  0  0  0  0  0  0  0  0  0
   -5.2608   13.2305    0.0000 C   0  0  0  0  0  0  0  0  0  0  0  0
   -6.5922   12.5395    0.0000 O   0  0  0  0  0  0  0  0  0  0  0  0
   -5.1935   14.7290    0.0000 N   0  0  0  0  0  0  0  0  0  0  0  0
  1  2  1  0
  2  3  2  0
  3  4  1  0
  4  5  2  0
  5  6  1  0
  6  7  2  0
  7  8  1  0
  8  9  2  0
  9 10  1  0
 10 11  1  0
 11 12  1  0
 12 13  1  0
 13 14  1  0
 14 15  1  0
 15 16  1  0
 16 17  1  0
 17 18  2  0
 18 19  1  0
 19 20  2  0
 20 21  1  0
 21 22  2  0
 21 23  1  0
 23 24  1  0
 24 25  2  0
 25 26  1  0
 26 27  2  0
 27 28  1  0
 28 29  1  0
 29 30  2  0
 30 31  1  0
 31 32  2  0
 32 33  1  0
 33 34  2  0
 20 35  1  0
 35 36  2  0
 36 37  1  0
 37 38  2  0
 38 39  1  0
 39 40  2  0
 40 41  1  0
 41 42  1  0
 42 43  2  0
 43 44  1  0
 44 45  2  0
 45 46  1  0
 46 47  2  0
 47 48  1  0
 48 49  2  0
 49 50  1  0
 50 51  2  0
 51 52  1  0
 52 53  1  0
 53 54  2  0
 54 55  1  0
 55 56  2  0
 56 57  1  0
 57 58  2  0
 45 59  1  0
 59 60  2  0
  5 61  1  0
 61 62  2  0
 61 63  1  0
 63  2  1  0
 10  6  1  0
 16 11  1  0
 36 17  1  0
 41 37  1  0
 59 42  1  0
 28 24  1  0
 34 29  1  0
 52 46  1  0
 58 53  1  0
M  END
>  <Title>  (891) 
idABIGgen8

$$$$

     RDKit          2D

 16 17  0  0  0  0  0  0  0  0999 V2000
    3.7500   -1.2990    0.0000 O   0  0  0  0  0  0  0  0  0  0  0  0
    3.0000    0.0000    0.0000 C   0  0  0  0  0  0  0  0  0  0  0  0
    1.5000    0.0000    0.0000 C   0  0  0  0  0  0  0  0  0  0  0  0
    0.7500   -1.2990    0.0000 C   0  0  0  0  0  0  0  0  0  0  0  0
   -0.7500   -1.2990    0.0000 C   0  0  0  0  0  0  0  0  0  0  0  0
   -1.5000    0.0000    0.0000 C   0  0  0  0  0  0  0  0  0  0  0  0
   -0.7500    1.2990    0.0000 C   0  0  0  0  0  0  0  0  0  0  0  0
    0.7500    1.2990    0.0000 C   0  0  0  0  0  0  0  0  0  0  0  0
    1.5000    2.5981    0.0000 C   0  0  0  0  0  0  0  0  0  0  0  0
    3.0000    2.5981    0.0000 C   0  0  0  0  0  0  0  0  0  0  0  0
    3.7500    3.8971    0.0000 C   0  0  0  0  0  0  0  0  0  0  0  0
    5.2500    3.8971    0.0000 C   0  0  0  0  0  0  0  0  0  0  0  0
    6.0000    5.1962    0.0000 C   0  0  0  0  0  0  0  0  0  0  0  0
    5.2500    6.4952    0.0000 C   0  0  0  0  0  0  0  0  0  0  0  0
    3.7500    6.4952    0.0000 C   0  0  0  0  0  0  0  0  0  0  0  0
    3.0000    5.1962    0.0000 C   0  0  0  0  0  0  0  0  0  0  0  0
  1  2  1  0
  2  3  1  0
  3  4  2  0
  4  5  1  0
  5  6  2  0
  6  7  1  0
  7  8  2  0
  8  9  1  0
  9 10  1  0
 10 11  1  0
 11 12  2  0
 12 13  1  0
 13 14  2  0
 14 15  1  0
 15 16  2  0
  8  3  1  0
 16 11  1  0
M  END
>  <Title>  (892) 
idABIHgen8

$$$$

     RDKit          2D

 48 54  0  0  0  0  0  0  0  0999 V2000
    3.6929    0.0000    0.0000 C   0  0  0  0  0  0  0  0  0  0  0  0
    2.1929    0.0000    0.0000 C   0  0  0  0  0  0  0  0  0  0  0  0
    1.6798    1.4095    0.0000 C   0  0  0  0  0  0  0  0  0  0  0  0
    0.3808    2.1595    0.0000 C   0  0  0  0  0  0  0  0  0  0  0  0
   -1.0964    1.8991    0.0000 C   0  0  0  0  0  0  0  0  0  0  0  0
   -2.0606    0.7500    0.0000 C   0  0  0  0  0  0  0  0  0  0  0  0
   -3.4701    1.2630    0.0000 C   0  0  0  0  0  0  0  0  0  0  0  0
   -2.0606   -0.7500    0.0000 N   0  0  0  0  0  0  0  0  0  0  0  0
   -1.0964   -1.8991    0.0000 C   0  0  0  0  0  0  0  0  0  0  0  0
   -1.8464   -3.1981    0.0000 C   0  0  0  0  0  0  0  0  0  0  0  0
   -1.2363   -4.5684    0.0000 N   0  0  0  0  0  0  0  0  0  0  0  0
   -2.3510   -5.5721    0.0000 N   0  0  0  0  0  0  0  0  0  0  0  0
   -3.6501   -4.8221    0.0000 N   0  0  0  0  0  0  0  0  0  0  0  0
   -3.3382   -3.3549    0.0000 N   0  0  0  0  0  0  0  0  0  0  0  0
   -4.3419   -2.2402    0.0000 C   0  0  0  0  0  0  0  0  0  0  0  0
   -3.8784   -0.8136    0.0000 C   0  0  0  0  0  0  0  0  0  0  0  0
   -4.8821    0.3011    0.0000 C   0  0  0  0  0  0  0  0  0  0  0  0
   -6.3493   -0.0107    0.0000 C   0  0  0  0  0  0  0  0  0  0  0  0
   -6.8128   -1.4373    0.0000 C   0  0  0  0  0  0  0  0  0  0  0  0
   -5.8091   -2.5520    0.0000 C   0  0  0  0  0  0  0  0  0  0  0  0
   -6.2727   -3.9786    0.0000 C   0  0  0  0  0  0  0  0  0  0  0  0
   -5.3910   -5.1922    0.0000 C   0  0  0  0  0  0  0  0  0  0  0  0
   -6.2727   -6.4057    0.0000 C   0  0  0  0  0  0  0  0  0  0  0  0
   -7.6992   -5.9422    0.0000 C   0  0  0  0  0  0  0  0  0  0  0  0
   -8.9128   -6.8238    0.0000 C   0  0  0  0  0  0  0  0  0  0  0  0
   -8.7560   -8.3156    0.0000 O   0  0  0  0  0  0  0  0  0  0  0  0
  -10.2831   -6.2137    0.0000 N   0  0  0  0  0  0  0  0  0  0  0  0
  -11.4966   -7.0954    0.0000 C   0  0  0  0  0  0  0  0  0  0  0  0
  -11.4966   -8.5954    0.0000 N   0  0  0  0  0  0  0  0  0  0  0  0
  -12.9232   -9.0589    0.0000 N   0  0  0  0  0  0  0  0  0  0  0  0
  -13.8049   -7.8454    0.0000 N   0  0  0  0  0  0  0  0  0  0  0  0
  -12.9232   -6.6319    0.0000 N   0  0  0  0  0  0  0  0  0  0  0  0
  -13.3867   -5.2053    0.0000 C   0  0  0  0  0  0  0  0  0  0  0  0
  -14.8133   -4.7418    0.0000 C   0  0  0  0  0  0  0  0  0  0  0  0
  -14.8133   -3.2418    0.0000 C   0  0  0  0  0  0  0  0  0  0  0  0
  -13.3867   -2.7782    0.0000 C   0  0  0  0  0  0  0  0  0  0  0  0
  -12.9232   -1.3517    0.0000 C   0  0  0  0  0  0  0  0  0  0  0  0
  -11.4560   -1.0398    0.0000 C   0  0  0  0  0  0  0  0  0  0  0  0
  -10.9924    0.3868    0.0000 C   0  0  0  0  0  0  0  0  0  0  0  0
  -11.9961    1.5015    0.0000 C   0  0  0  0  0  0  0  0  0  0  0  0
  -13.4634    1.1896    0.0000 C   0  0  0  0  0  0  0  0  0  0  0  0
  -13.9269   -0.2369    0.0000 C   0  0  0  0  0  0  0  0  0  0  0  0
  -12.5050   -3.9918    0.0000 C   0  0  0  0  0  0  0  0  0  0  0  0
  -11.0050   -3.9918    0.0000 O   0  0  0  0  0  0  0  0  0  0  0  0
   -7.6992   -4.4422    0.0000 C   0  0  0  0  0  0  0  0  0  0  0  0
   -8.9128   -3.5605    0.0000 O   0  0  0  0  0  0  0  0  0  0  0  0
    0.3808   -2.1595    0.0000 C   0  0  0  0  0  0  0  0  0  0  0  0
    1.6798   -1.4095    0.0000 C   0  0  0  0  0  0  0  0  0  0  0  0
  1  2  1  0
  2  3  1  0
  3  4  2  0
  4  5  1  0
  5  6  2  0
  6  7  1  0
  6  8  1  0
  8  9  1  0
  9 10  1  0
 10 11  2  0
 11 12  1  0
 12 13  2  0
 13 14  1  0
 14 15  1  0
 15 16  2  0
 16 17  1  0
 17 18  2  0
 18 19  1  0
 19 20  2  0
 20 21  1  0
 21 22  2  0
 22 23  1  0
 23 24  2  0
 24 25  1  0
 25 26  2  0
 25 27  1  0
 27 28  1  0
 28 29  2  0
 29 30  1  0
 30 31  2  0
 31 32  1  0
 32 33  1  0
 33 34  2  0
 34 35  1  0
 35 36  2  0
 36 37  1  0
 37 38  2  0
 38 39  1  0
 39 40  2  0
 40 41  1  0
 41 42  2  0
 36 43  1  0
 43 44  2  0
 24 45  1  0
 45 46  2  0
  9 47  2  0
 47 48  1  0
 48  2  2  0
 14 10  1  0
 20 15  1  0
 45 21  1  0
 32 28  1  0
 43 33  1  0
 42 37  1  0
M  END
>  <Title>  (893) 
idABIIgen8

$$$$

     RDKit          2D

 57 64  0  0  0  0  0  0  0  0999 V2000
    5.5827    6.5335    0.0000 C   0  0  0  0  0  0  0  0  0  0  0  0
    4.3692    7.4152    0.0000 C   0  0  0  0  0  0  0  0  0  0  0  0
    4.7194    8.8738    0.0000 C   0  0  0  0  0  0  0  0  0  0  0  0
    3.9356   10.1527    0.0000 C   0  0  0  0  0  0  0  0  0  0  0  0
    2.4771   10.5029    0.0000 C   0  0  0  0  0  0  0  0  0  0  0  0
    1.1981    9.7191    0.0000 C   0  0  0  0  0  0  0  0  0  0  0  0
    0.8479    8.2606    0.0000 C   0  0  0  0  0  0  0  0  0  0  0  0
    1.6317    6.9816    0.0000 C   0  0  0  0  0  0  0  0  0  0  0  0
    0.7500    5.7681    0.0000 C   0  0  0  0  0  0  0  0  0  0  0  0
   -0.7500    5.7681    0.0000 N   0  0  0  0  0  0  0  0  0  0  0  0
   -1.2135    4.3415    0.0000 N   0  0  0  0  0  0  0  0  0  0  0  0
    0.0000    3.4598    0.0000 N   0  0  0  0  0  0  0  0  0  0  0  0
    1.2135    4.3415    0.0000 N   0  0  0  0  0  0  0  0  0  0  0  0
    2.6401    3.8780    0.0000 C   0  0  0  0  0  0  0  0  0  0  0  0
    3.8536    4.7597    0.0000 C   0  0  0  0  0  0  0  0  0  0  0  0
    5.0672    3.8780    0.0000 N   0  0  0  0  0  0  0  0  0  0  0  0
    4.6036    2.4514    0.0000 N   0  0  0  0  0  0  0  0  0  0  0  0
    3.1036    2.4514    0.0000 N   0  0  0  0  0  0  0  0  0  0  0  0
    2.2220    1.2379    0.0000 C   0  0  0  0  0  0  0  0  0  0  0  0
    0.7302    1.3947    0.0000 C   0  0  0  0  0  0  0  0  0  0  0  0
   -0.1515    0.1812    0.0000 C   0  0  0  0  0  0  0  0  0  0  0  0
    0.4586   -1.1892    0.0000 C   0  0  0  0  0  0  0  0  0  0  0  0
   -0.4231   -2.4027    0.0000 C   0  0  0  0  0  0  0  0  0  0  0  0
   -1.9149   -2.2459    0.0000 C   0  0  0  0  0  0  0  0  0  0  0  0
   -2.7965   -3.4594    0.0000 C   0  0  0  0  0  0  0  0  0  0  0  0
   -2.1864   -4.8297    0.0000 C   0  0  0  0  0  0  0  0  0  0  0  0
   -3.0681   -6.0433    0.0000 C   0  0  0  0  0  0  0  0  0  0  0  0
   -2.4580   -7.4136    0.0000 O   0  0  0  0  0  0  0  0  0  0  0  0
   -4.5599   -5.8865    0.0000 N   0  0  0  0  0  0  0  0  0  0  0  0
   -5.4416   -7.1000    0.0000 O   0  0  0  0  0  0  0  0  0  0  0  0
   -0.6946   -4.9865    0.0000 C   0  0  0  0  0  0  0  0  0  0  0  0
    0.1870   -3.7730    0.0000 C   0  0  0  0  0  0  0  0  0  0  0  0
    1.9504   -1.3460    0.0000 C   0  0  0  0  0  0  0  0  0  0  0  0
    2.8321   -0.1324    0.0000 C   0  0  0  0  0  0  0  0  0  0  0  0
    4.3238   -0.2892    0.0000 C   0  0  0  0  0  0  0  0  0  0  0  0
    5.2055    0.9243    0.0000 C   0  0  0  0  0  0  0  0  0  0  0  0
    6.6973    0.7675    0.0000 C   0  0  0  0  0  0  0  0  0  0  0  0
    7.3074   -0.6028    0.0000 N   0  0  0  0  0  0  0  0  0  0  0  0
    6.4257   -1.8163    0.0000 N   0  0  0  0  0  0  0  0  0  0  0  0
    4.9340   -1.6595    0.0000 C   0  0  0  0  0  0  0  0  0  0  0  0
    4.0523   -2.8731    0.0000 C   0  0  0  0  0  0  0  0  0  0  0  0
    2.5523   -2.8731    0.0000 N   0  0  0  0  0  0  0  0  0  0  0  0
    2.0887   -4.2997    0.0000 N   0  0  0  0  0  0  0  0  0  0  0  0
    3.3023   -5.1813    0.0000 N   0  0  0  0  0  0  0  0  0  0  0  0
    4.5158   -4.2997    0.0000 N   0  0  0  0  0  0  0  0  0  0  0  0
    5.9424   -4.7632    0.0000 C   0  0  0  0  0  0  0  0  0  0  0  0
    7.0571   -3.7595    0.0000 C   0  0  0  0  0  0  0  0  0  0  0  0
    8.4837   -4.2230    0.0000 C   0  0  0  0  0  0  0  0  0  0  0  0
    8.7956   -5.6902    0.0000 C   0  0  0  0  0  0  0  0  0  0  0  0
   10.2221   -6.1538    0.0000 C   0  0  0  0  0  0  0  0  0  0  0  0
   10.5340   -7.6210    0.0000 O   0  0  0  0  0  0  0  0  0  0  0  0
   11.3369   -5.1501    0.0000 N   0  0  0  0  0  0  0  0  0  0  0  0
   12.7634   -5.6136    0.0000 O   0  0  0  0  0  0  0  0  0  0  0  0
    7.6808   -6.6939    0.0000 C   0  0  0  0  0  0  0  0  0  0  0  0
    7.9927   -8.1611    0.0000 O   0  0  0  0  0  0  0  0  0  0  0  0
    6.2543   -6.2304    0.0000 N   0  0  0  0  0  0  0  0  0  0  0  0
    3.0902    6.6315    0.0000 N   0  0  0  0  0  0  0  0  0  0  0  0
  1  2  1  0
  2  3  2  0
  3  4  1  0
  4  5  2  0
  5  6  2  0
  6  7  2  0
  7  8  2  0
  8  9  1  0
  9 10  2  0
 10 11  1  0
 11 12  2  0
 12 13  1  0
 13 14  1  0
 14 15  2  0
 15 16  1  0
 16 17  2  0
 17 18  1  0
 18 19  1  0
 19 20  2  0
 20 21  1  0
 21 22  2  0
 22 23  1  0
 23 24  2  0
 24 25  1  0
 25 26  2  0
 26 27  1  0
 27 28  2  0
 27 29  1  0
 29 30  1  0
 26 31  1  0
 31 32  1  0
 22 33  1  0
 33 34  2  0
 34 35  1  0
 35 36  2  0
 36 37  1  0
 37 38  2  0
 38 39  1  0
 39 40  2  0
 40 41  1  0
 41 42  2  0
 42 43  1  0
 43 44  2  0
 44 45  1  0
 45 46  1  0
 46 47  2  0
 47 48  1  0
 48 49  2  0
 49 50  1  0
 50 51  2  0
 50 52  1  0
 52 53  1  0
 49 54  1  0
 54 55  2  0
 54 56  1  0
  8 57  1  0
 57  2  1  0
 13  9  1  0
 18 14  1  0
 34 19  1  0
 40 35  1  0
 45 41  1  0
 56 46  1  0
 32 23  1  0
M  END
>  <Title>  (894) 
idABIJgen8

$$$$

     RDKit          2D

 58 65  0  0  0  0  0  0  0  0999 V2000
    7.5684    0.6280    0.0000 C   0  0  0  0  0  0  0  0  0  0  0  0
    7.4614    2.1242    0.0000 O   0  0  0  0  0  0  0  0  0  0  0  0
    6.1122    2.7796    0.0000 C   0  0  0  0  0  0  0  0  0  0  0  0
    5.1299    1.6460    0.0000 C   0  0  0  0  0  0  0  0  0  0  0  0
    3.7124    1.1554    0.0000 C   0  0  0  0  0  0  0  0  0  0  0  0
    2.2395    1.4392    0.0000 C   0  0  0  0  0  0  0  0  0  0  0  0
    2.6621    0.0000    0.0000 C   0  0  0  0  0  0  0  0  0  0  0  0
    2.2395   -1.4392    0.0000 C   0  0  0  0  0  0  0  0  0  0  0  0
    1.1059   -2.4215    0.0000 C   0  0  0  0  0  0  0  0  0  0  0  0
   -0.3789   -2.6350    0.0000 C   0  0  0  0  0  0  0  0  0  0  0  0
   -1.7433   -2.0119    0.0000 C   0  0  0  0  0  0  0  0  0  0  0  0
   -2.5543   -0.7500    0.0000 C   0  0  0  0  0  0  0  0  0  0  0  0
   -2.5543    0.7500    0.0000 C   0  0  0  0  0  0  0  0  0  0  0  0
   -1.7433    2.0119    0.0000 C   0  0  0  0  0  0  0  0  0  0  0  0
   -0.3789    2.6350    0.0000 C   0  0  0  0  0  0  0  0  0  0  0  0
    1.1059    2.4215    0.0000 C   0  0  0  0  0  0  0  0  0  0  0  0
    0.6153    3.8390    0.0000 C   0  0  0  0  0  0  0  0  0  0  0  0
   -0.8022    3.3484    0.0000 C   0  0  0  0  0  0  0  0  0  0  0  0
   -1.9359    4.3307    0.0000 C   0  0  0  0  0  0  0  0  0  0  0  0
   -1.6520    5.8036    0.0000 C   0  0  0  0  0  0  0  0  0  0  0  0
   -2.7856    6.7859    0.0000 C   0  0  0  0  0  0  0  0  0  0  0  0
   -4.2031    6.2953    0.0000 O   0  0  0  0  0  0  0  0  0  0  0  0
   -2.5017    8.2588    0.0000 N   0  0  0  0  0  0  0  0  0  0  0  0
   -3.6353    9.2411    0.0000 C   0  0  0  0  0  0  0  0  0  0  0  0
   -5.0528    8.7505    0.0000 O   0  0  0  0  0  0  0  0  0  0  0  0
   -3.3515   10.7140    0.0000 N   0  0  0  0  0  0  0  0  0  0  0  0
   -4.4851   11.6963    0.0000 C   0  0  0  0  0  0  0  0  0  0  0  0
   -5.9461   11.3565    0.0000 N   0  0  0  0  0  0  0  0  0  0  0  0
   -6.7207   12.6411    0.0000 N   0  0  0  0  0  0  0  0  0  0  0  0
   -5.7384   13.7747    0.0000 N   0  0  0  0  0  0  0  0  0  0  0  0
   -4.3567   13.1908    0.0000 N   0  0  0  0  0  0  0  0  0  0  0  0
   -0.2345    6.2942    0.0000 C   0  0  0  0  0  0  0  0  0  0  0  0
    0.8992    5.3119    0.0000 C   0  0  0  0  0  0  0  0  0  0  0  0
    1.8814    6.4455    0.0000 C   0  0  0  0  0  0  0  0  0  0  0  0
    3.2989    6.9362    0.0000 C   0  0  0  0  0  0  0  0  0  0  0  0
    4.7718    6.6523    0.0000 C   0  0  0  0  0  0  0  0  0  0  0  0
    5.9055    5.6700    0.0000 C   0  0  0  0  0  0  0  0  0  0  0  0
    6.3961    4.2525    0.0000 C   0  0  0  0  0  0  0  0  0  0  0  0
    7.8922    4.3595    0.0000 O   0  0  0  0  0  0  0  0  0  0  0  0
    6.4408    7.0712    0.0000 C   0  0  0  0  0  0  0  0  0  0  0  0
    7.9405    7.0998    0.0000 N   0  0  0  0  0  0  0  0  0  0  0  0
    8.3768    8.5349    0.0000 N   0  0  0  0  0  0  0  0  0  0  0  0
    7.1467    9.3933    0.0000 N   0  0  0  0  0  0  0  0  0  0  0  0
    5.9502    8.4887    0.0000 N   0  0  0  0  0  0  0  0  0  0  0  0
    4.6632    9.2592    0.0000 C   0  0  0  0  0  0  0  0  0  0  0  0
    4.2439   10.6994    0.0000 C   0  0  0  0  0  0  0  0  0  0  0  0
    2.8564   11.2695    0.0000 C   0  0  0  0  0  0  0  0  0  0  0  0
    1.5457   10.5402    0.0000 C   0  0  0  0  0  0  0  0  0  0  0  0
    0.3199   11.4048    0.0000 C   0  0  0  0  0  0  0  0  0  0  0  0
    0.4557   12.8986    0.0000 C   0  0  0  0  0  0  0  0  0  0  0  0
   -0.7701   13.7631    0.0000 C   0  0  0  0  0  0  0  0  0  0  0  0
   -2.1317   13.1338    0.0000 C   0  0  0  0  0  0  0  0  0  0  0  0
   -2.2675   11.6400    0.0000 C   0  0  0  0  0  0  0  0  0  0  0  0
   -1.0417   10.7755    0.0000 C   0  0  0  0  0  0  0  0  0  0  0  0
    1.2986    9.0607    0.0000 C   0  0  0  0  0  0  0  0  0  0  0  0
    2.1998    7.8886    0.0000 C   0  0  0  0  0  0  0  0  0  0  0  0
    3.1821    9.0222    0.0000 C   0  0  0  0  0  0  0  0  0  0  0  0
    2.4528   10.3330    0.0000 O   0  0  0  0  0  0  0  0  0  0  0  0
  1  2  1  0
  2  3  1  0
  3  4  2  0
  4  5  1  0
  5  6  2  0
  6  7  1  0
  7  8  2  0
  8  9  1  0
  9 10  2  0
 10 11  1  0
 11 12  2  0
 12 13  1  0
 13 14  2  0
 14 15  1  0
 15 16  2  0
 16 17  1  0
 17 18  2  0
 18 19  1  0
 19 20  2  0
 20 21  1  0
 21 22  2  0
 21 23  1  0
 23 24  1  0
 24 25  2  0
 24 26  1  0
 26 27  1  0
 27 28  2  0
 28 29  1  0
 29 30  2  0
 30 31  1  0
 20 32  1  0
 32 33  2  0
 33 34  1  0
 34 35  2  0
 35 36  1  0
 36 37  2  0
 37 38  1  0
 38 39  2  0
 37 40  1  0
 40 41  2  0
 41 42  1  0
 42 43  2  0
 43 44  1  0
 44 45  1  0
 45 46  2  0
 46 47  1  0
 47 48  2  0
 48 49  1  0
 49 50  2  0
 50 51  1  0
 51 52  2  0
 52 53  1  0
 53 54  2  0
 48 55  1  0
 55 56  2  0
 56 57  1  0
 57 58  2  0
 38  3  1  0
 44 40  1  0
 57 45  1  0
 16  6  1  0
 33 17  1  0
 56 34  1  0
 31 27  1  0
 54 49  1  0
M  END
>  <Title>  (895) 
idABIKgen8

$$$$

     RDKit          2D

 56 63  0  0  0  0  0  0  0  0999 V2000
    3.9786   -1.2990    0.0000 C   0  0  0  0  0  0  0  0  0  0  0  0
    3.2286   -0.0000    0.0000 O   0  0  0  0  0  0  0  0  0  0  0  0
    1.7286    0.0000    0.0000 C   0  0  0  0  0  0  0  0  0  0  0  0
    1.0777    1.3515    0.0000 C   0  0  0  0  0  0  0  0  0  0  0  0
   -0.3846    1.6852    0.0000 C   0  0  0  0  0  0  0  0  0  0  0  0
   -1.5574    0.7500    0.0000 C   0  0  0  0  0  0  0  0  0  0  0  0
   -2.9088    1.4008    0.0000 C   0  0  0  0  0  0  0  0  0  0  0  0
   -4.2297    0.6900    0.0000 N   0  0  0  0  0  0  0  0  0  0  0  0
   -5.3139    1.7266    0.0000 N   0  0  0  0  0  0  0  0  0  0  0  0
   -4.6631    3.0781    0.0000 N   0  0  0  0  0  0  0  0  0  0  0  0
   -3.1767    2.8767    0.0000 N   0  0  0  0  0  0  0  0  0  0  0  0
   -2.1401    3.9609    0.0000 C   0  0  0  0  0  0  0  0  0  0  0  0
   -0.6829    3.6053    0.0000 C   0  0  0  0  0  0  0  0  0  0  0  0
    0.3537    4.6895    0.0000 C   0  0  0  0  0  0  0  0  0  0  0  0
   -0.0669    6.1293    0.0000 C   0  0  0  0  0  0  0  0  0  0  0  0
    0.9697    7.2135    0.0000 C   0  0  0  0  0  0  0  0  0  0  0  0
    0.7019    8.6894    0.0000 N   0  0  0  0  0  0  0  0  0  0  0  0
    2.0228    9.4002    0.0000 N   0  0  0  0  0  0  0  0  0  0  0  0
    3.1069    8.3636    0.0000 N   0  0  0  0  0  0  0  0  0  0  0  0
    2.4561    7.0121    0.0000 N   0  0  0  0  0  0  0  0  0  0  0  0
    3.1669    5.6912    0.0000 C   0  0  0  0  0  0  0  0  0  0  0  0
    4.6654    5.7585    0.0000 C   0  0  0  0  0  0  0  0  0  0  0  0
    5.6523    4.6289    0.0000 N   0  0  0  0  0  0  0  0  0  0  0  0
    5.3845    3.1530    0.0000 C   0  0  0  0  0  0  0  0  0  0  0  0
    4.0636    2.4422    0.0000 C   0  0  0  0  0  0  0  0  0  0  0  0
    2.6843    3.0318    0.0000 C   0  0  0  0  0  0  0  0  0  0  0  0
    2.2852    4.4777    0.0000 C   0  0  0  0  0  0  0  0  0  0  0  0
   -1.5241    6.4849    0.0000 C   0  0  0  0  0  0  0  0  0  0  0  0
   -2.5607    5.4007    0.0000 C   0  0  0  0  0  0  0  0  0  0  0  0
   -4.0180    5.7563    0.0000 C   0  0  0  0  0  0  0  0  0  0  0  0
   -5.0546    4.6722    0.0000 C   0  0  0  0  0  0  0  0  0  0  0  0
   -6.5118    5.0278    0.0000 C   0  0  0  0  0  0  0  0  0  0  0  0
   -6.9324    6.4676    0.0000 C   0  0  0  0  0  0  0  0  0  0  0  0
   -5.8958    7.5518    0.0000 C   0  0  0  0  0  0  0  0  0  0  0  0
   -4.4386    7.1962    0.0000 C   0  0  0  0  0  0  0  0  0  0  0  0
   -3.4020    8.2804    0.0000 N   0  0  0  0  0  0  0  0  0  0  0  0
   -1.9448    7.9247    0.0000 N   0  0  0  0  0  0  0  0  0  0  0  0
   -0.9082    9.0089    0.0000 N   0  0  0  0  0  0  0  0  0  0  0  0
   -1.3288   10.4487    0.0000 N   0  0  0  0  0  0  0  0  0  0  0  0
   -2.7861   10.8044    0.0000 N   0  0  0  0  0  0  0  0  0  0  0  0
   -3.8227    9.7202    0.0000 N   0  0  0  0  0  0  0  0  0  0  0  0
   -5.2799   10.0758    0.0000 C   0  0  0  0  0  0  0  0  0  0  0  0
   -6.3165    8.9916    0.0000 C   0  0  0  0  0  0  0  0  0  0  0  0
   -7.7737    9.3472    0.0000 C   0  0  0  0  0  0  0  0  0  0  0  0
   -8.1944   10.7870    0.0000 C   0  0  0  0  0  0  0  0  0  0  0  0
   -9.6516   11.1426    0.0000 C   0  0  0  0  0  0  0  0  0  0  0  0
  -10.6882   10.0585    0.0000 O   0  0  0  0  0  0  0  0  0  0  0  0
  -10.0722   12.5825    0.0000 N   0  0  0  0  0  0  0  0  0  0  0  0
  -11.5295   12.9381    0.0000 O   0  0  0  0  0  0  0  0  0  0  0  0
   -7.1578   11.8712    0.0000 N   0  0  0  0  0  0  0  0  0  0  0  0
   -5.7005   11.5156    0.0000 C   0  0  0  0  0  0  0  0  0  0  0  0
   -4.6639   12.5998    0.0000 O   0  0  0  0  0  0  0  0  0  0  0  0
   -1.5574   -0.7500    0.0000 N   0  0  0  0  0  0  0  0  0  0  0  0
   -0.3846   -1.6852    0.0000 C   0  0  0  0  0  0  0  0  0  0  0  0
   -0.7184   -3.1476    0.0000 O   0  0  0  0  0  0  0  0  0  0  0  0
    1.0777   -1.3515    0.0000 N   0  0  0  0  0  0  0  0  0  0  0  0
  1  2  1  0
  2  3  1  0
  3  4  2  0
  4  5  1  0
  5  6  2  0
  6  7  1  0
  7  8  2  0
  8  9  1  0
  9 10  2  0
 10 11  1  0
 11 12  1  0
 12 13  2  0
 13 14  1  0
 14 15  2  0
 15 16  1  0
 16 17  2  0
 17 18  1  0
 18 19  2  0
 19 20  1  0
 20 21  1  0
 21 22  1  0
 22 23  2  0
 23 24  1  0
 24 25  2  0
 25 26  1  0
 26 27  1  0
 15 28  1  0
 28 29  2  0
 29 30  1  0
 30 31  2  0
 31 32  1  0
 32 33  2  0
 33 34  1  0
 34 35  2  0
 35 36  1  0
 36 37  1  0
 37 38  2  0
 38 39  1  0
 39 40  2  0
 40 41  1  0
 41 42  1  0
 42 43  2  0
 43 44  1  0
 44 45  2  0
 45 46  1  0
 46 47  2  0
 46 48  1  0
 48 49  1  0
 45 50  1  0
 50 51  1  0
 51 52  2  0
  6 53  1  0
 53 54  1  0
 54 55  2  0
 54 56  1  0
 56  3  1  0
 11  7  1  0
 29 12  1  0
 35 30  1  0
 41 36  1  0
 51 42  1  0
 20 16  1  0
 27 21  1  0
M  END
>  <Title>  (896) 
idABILgen8

$$$$

     RDKit          2D

 14 14  0  0  0  0  0  0  0  0999 V2000
    4.1621    0.0000    0.0000 C   0  0  0  0  0  0  0  0  0  0  0  0
    2.6621    0.0000    0.0000 C   0  0  0  0  0  0  0  0  0  0  0  0
    2.2395    1.4392    0.0000 C   0  0  0  0  0  0  0  0  0  0  0  0
    1.1059    2.4215    0.0000 C   0  0  0  0  0  0  0  0  0  0  0  0
   -0.3789    2.6350    0.0000 C   0  0  0  0  0  0  0  0  0  0  0  0
   -1.7433    2.0119    0.0000 C   0  0  0  0  0  0  0  0  0  0  0  0
   -2.5543    0.7500    0.0000 C   0  0  0  0  0  0  0  0  0  0  0  0
   -2.5543   -0.7500    0.0000 C   0  0  0  0  0  0  0  0  0  0  0  0
   -1.7433   -2.0119    0.0000 C   0  0  0  0  0  0  0  0  0  0  0  0
   -2.7256   -3.1455    0.0000 O   0  0  0  0  0  0  0  0  0  0  0  0
   -0.3789   -2.6350    0.0000 C   0  0  0  0  0  0  0  0  0  0  0  0
   -0.5923   -4.1197    0.0000 O   0  0  0  0  0  0  0  0  0  0  0  0
    1.1059   -2.4215    0.0000 C   0  0  0  0  0  0  0  0  0  0  0  0
    2.2395   -1.4392    0.0000 N   0  0  0  0  0  0  0  0  0  0  0  0
  1  2  1  0
  2  3  2  0
  3  4  1  0
  4  5  2  0
  5  6  1  0
  6  7  2  0
  7  8  1  0
  8  9  2  0
  9 10  1  0
  9 11  1  0
 11 12  1  0
 11 13  1  0
 13 14  1  0
 14  2  1  0
M  END
>  <Title>  (897) 
idABIMgen8

$$$$

     RDKit          2D

 18 18  0  0  0  0  0  0  0  0999 V2000
    5.3444    0.0000    0.0000 C   0  0  0  0  0  0  0  0  0  0  0  0
    3.8444    0.0000    0.0000 C   0  0  0  0  0  0  0  0  0  0  0  0
    3.5517   -1.4712    0.0000 C   0  0  0  0  0  0  0  0  0  0  0  0
    2.7184   -2.7184    0.0000 C   0  0  0  0  0  0  0  0  0  0  0  0
    1.4712   -3.5517    0.0000 C   0  0  0  0  0  0  0  0  0  0  0  0
   -0.0000   -3.8444    0.0000 C   0  0  0  0  0  0  0  0  0  0  0  0
   -1.4712   -3.5517    0.0000 C   0  0  0  0  0  0  0  0  0  0  0  0
   -2.7184   -2.7184    0.0000 C   0  0  0  0  0  0  0  0  0  0  0  0
   -3.5517   -1.4712    0.0000 C   0  0  0  0  0  0  0  0  0  0  0  0
   -3.8444    0.0000    0.0000 C   0  0  0  0  0  0  0  0  0  0  0  0
   -3.5517    1.4712    0.0000 C   0  0  0  0  0  0  0  0  0  0  0  0
   -2.7184    2.7184    0.0000 C   0  0  0  0  0  0  0  0  0  0  0  0
   -1.4712    3.5517    0.0000 C   0  0  0  0  0  0  0  0  0  0  0  0
    0.0000    3.8444    0.0000 C   0  0  0  0  0  0  0  0  0  0  0  0
    1.4712    3.5517    0.0000 C   0  0  0  0  0  0  0  0  0  0  0  0
    2.7184    2.7184    0.0000 C   0  0  0  0  0  0  0  0  0  0  0  0
    3.5517    1.4712    0.0000 C   0  0  0  0  0  0  0  0  0  0  0  0
    4.9376    2.0452    0.0000 C   0  0  0  0  0  0  0  0  0  0  0  0
  1  2  1  0
  2  3  2  0
  3  4  1  0
  4  5  2  0
  5  6  1  0
  6  7  2  0
  7  8  1  0
  8  9  2  0
  9 10  1  0
 10 11  2  0
 11 12  1  0
 12 13  2  0
 13 14  1  0
 14 15  2  0
 15 16  1  0
 16 17  2  0
 17 18  1  0
 17  2  1  0
M  END
>  <Title>  (898) 
idABINgen8

$$$$

     RDKit          2D

 11 11  0  0  0  0  0  0  0  0999 V2000
    5.2500   -1.2990    0.0000 C   0  0  0  0  0  0  0  0  0  0  0  0
    3.7500   -1.2990    0.0000 C   0  0  0  0  0  0  0  0  0  0  0  0
    3.0000   -2.5981    0.0000 O   0  0  0  0  0  0  0  0  0  0  0  0
    3.0000    0.0000    0.0000 O   0  0  0  0  0  0  0  0  0  0  0  0
    1.5000    0.0000    0.0000 C   0  0  0  0  0  0  0  0  0  0  0  0
    0.7500   -1.2990    0.0000 C   0  0  0  0  0  0  0  0  0  0  0  0
   -0.7500   -1.2990    0.0000 C   0  0  0  0  0  0  0  0  0  0  0  0
   -1.5000    0.0000    0.0000 C   0  0  0  0  0  0  0  0  0  0  0  0
   -0.7500    1.2990    0.0000 C   0  0  0  0  0  0  0  0  0  0  0  0
    0.7500    1.2990    0.0000 C   0  0  0  0  0  0  0  0  0  0  0  0
    1.5000    2.5981    0.0000 N   0  0  0  0  0  0  0  0  0  0  0  0
  1  2  1  0
  2  3  2  0
  2  4  1  0
  4  5  1  0
  5  6  2  0
  6  7  1  0
  7  8  2  0
  8  9  1  0
  9 10  2  0
 10 11  1  0
 10  5  1  0
M  END
>  <Title>  (899) 
idABIOgen8

$$$$

     RDKit          2D

 42 48  0  0  0  0  0  0  0  0999 V2000
    3.7500   -1.2990    0.0000 O   0  0  0  0  0  0  0  0  0  0  0  0
    3.0000    0.0000    0.0000 C   0  0  0  0  0  0  0  0  0  0  0  0
    1.5000    0.0000    0.0000 C   0  0  0  0  0  0  0  0  0  0  0  0
    0.7500   -1.2990    0.0000 C   0  0  0  0  0  0  0  0  0  0  0  0
   -0.7500   -1.2990    0.0000 C   0  0  0  0  0  0  0  0  0  0  0  0
   -1.5000    0.0000    0.0000 C   0  0  0  0  0  0  0  0  0  0  0  0
   -3.0000    0.0000    0.0000 C   0  0  0  0  0  0  0  0  0  0  0  0
   -3.8817   -1.2135    0.0000 N   0  0  0  0  0  0  0  0  0  0  0  0
   -5.3083   -0.7500    0.0000 N   0  0  0  0  0  0  0  0  0  0  0  0
   -5.3083    0.7500    0.0000 N   0  0  0  0  0  0  0  0  0  0  0  0
   -3.8817    1.2135    0.0000 N   0  0  0  0  0  0  0  0  0  0  0  0
   -3.4182    2.6401    0.0000 C   0  0  0  0  0  0  0  0  0  0  0  0
   -1.9509    2.9520    0.0000 C   0  0  0  0  0  0  0  0  0  0  0  0
   -1.4874    4.3786    0.0000 C   0  0  0  0  0  0  0  0  0  0  0  0
   -2.4911    5.4933    0.0000 C   0  0  0  0  0  0  0  0  0  0  0  0
   -2.0276    6.9199    0.0000 C   0  0  0  0  0  0  0  0  0  0  0  0
   -2.9093    8.1334    0.0000 N   0  0  0  0  0  0  0  0  0  0  0  0
   -2.0276    9.3469    0.0000 N   0  0  0  0  0  0  0  0  0  0  0  0
   -0.6010    8.8834    0.0000 N   0  0  0  0  0  0  0  0  0  0  0  0
   -0.6010    7.3834    0.0000 N   0  0  0  0  0  0  0  0  0  0  0  0
    0.6125    6.5017    0.0000 C   0  0  0  0  0  0  0  0  0  0  0  0
    0.4557    5.0099    0.0000 C   0  0  0  0  0  0  0  0  0  0  0  0
    1.6693    4.1283    0.0000 C   0  0  0  0  0  0  0  0  0  0  0  0
    3.0396    4.7384    0.0000 C   0  0  0  0  0  0  0  0  0  0  0  0
    3.1964    6.2301    0.0000 C   0  0  0  0  0  0  0  0  0  0  0  0
    1.9829    7.1118    0.0000 C   0  0  0  0  0  0  0  0  0  0  0  0
   -3.9583    5.1814    0.0000 C   0  0  0  0  0  0  0  0  0  0  0  0
   -4.4218    3.7548    0.0000 C   0  0  0  0  0  0  0  0  0  0  0  0
   -5.8891    3.4430    0.0000 C   0  0  0  0  0  0  0  0  0  0  0  0
   -6.8928    4.5577    0.0000 C   0  0  0  0  0  0  0  0  0  0  0  0
   -8.3600    4.2458    0.0000 C   0  0  0  0  0  0  0  0  0  0  0  0
   -8.8235    2.8192    0.0000 C   0  0  0  0  0  0  0  0  0  0  0  0
  -10.2907    2.5074    0.0000 C   0  0  0  0  0  0  0  0  0  0  0  0
  -11.2944    3.6221    0.0000 C   0  0  0  0  0  0  0  0  0  0  0  0
  -12.7617    3.3102    0.0000 C   0  0  0  0  0  0  0  0  0  0  0  0
  -13.2252    1.8836    0.0000 C   0  0  0  0  0  0  0  0  0  0  0  0
  -12.2215    0.7689    0.0000 C   0  0  0  0  0  0  0  0  0  0  0  0
  -10.7543    1.0808    0.0000 C   0  0  0  0  0  0  0  0  0  0  0  0
   -7.8198    1.7045    0.0000 C   0  0  0  0  0  0  0  0  0  0  0  0
   -6.3526    2.0164    0.0000 C   0  0  0  0  0  0  0  0  0  0  0  0
   -0.7500    1.2990    0.0000 C   0  0  0  0  0  0  0  0  0  0  0  0
    0.7500    1.2990    0.0000 C   0  0  0  0  0  0  0  0  0  0  0  0
  1  2  1  0
  2  3  1  0
  3  4  2  0
  4  5  1  0
  5  6  2  0
  6  7  1  0
  7  8  2  0
  8  9  1  0
  9 10  2  0
 10 11  1  0
 11 12  1  0
 12 13  2  0
 13 14  1  0
 14 15  2  0
 15 16  1  0
 16 17  2  0
 17 18  1  0
 18 19  2  0
 19 20  1  0
 20 21  1  0
 21 22  2  0
 22 23  1  0
 23 24  2  0
 24 25  1  0
 25 26  2  0
 15 27  1  0
 27 28  2  0
 28 29  1  0
 29 30  2  0
 30 31  1  0
 31 32  2  0
 32 33  1  0
 33 34  2  0
 34 35  1  0
 35 36  2  0
 36 37  1  0
 37 38  2  0
 32 39  1  0
 39 40  1  0
  6 41  1  0
 41 42  2  0
 42  3  1  0
 11  7  1  0
 28 12  1  0
 40 29  1  0
 20 16  1  0
 26 21  1  0
 38 33  1  0
M  END
>  <Title>  (900) 
idABIPgen8

$$$$

     RDKit          2D

 58 66  0  0  0  0  0  0  0  0999 V2000
    3.6929    0.0000    0.0000 C   0  0  0  0  0  0  0  0  0  0  0  0
    2.1929    0.0000    0.0000 C   0  0  0  0  0  0  0  0  0  0  0  0
    1.6798    1.4095    0.0000 C   0  0  0  0  0  0  0  0  0  0  0  0
    0.3808    2.1595    0.0000 C   0  0  0  0  0  0  0  0  0  0  0  0
   -1.0964    1.8991    0.0000 C   0  0  0  0  0  0  0  0  0  0  0  0
   -2.0606    0.7500    0.0000 C   0  0  0  0  0  0  0  0  0  0  0  0
   -2.0606   -0.7500    0.0000 C   0  0  0  0  0  0  0  0  0  0  0  0
   -3.4701   -1.2630    0.0000 F   0  0  0  0  0  0  0  0  0  0  0  0
   -1.0964   -1.8991    0.0000 C   0  0  0  0  0  0  0  0  0  0  0  0
   -1.8464   -3.1981    0.0000 N   0  0  0  0  0  0  0  0  0  0  0  0
   -3.3464   -3.1981    0.0000 C   0  0  0  0  0  0  0  0  0  0  0  0
   -4.0964   -4.4971    0.0000 C   0  0  0  0  0  0  0  0  0  0  0  0
   -3.3464   -5.7962    0.0000 N   0  0  0  0  0  0  0  0  0  0  0  0
   -1.8464   -5.7962    0.0000 N   0  0  0  0  0  0  0  0  0  0  0  0
   -1.0964   -4.4971    0.0000 N   0  0  0  0  0  0  0  0  0  0  0  0
    0.4036   -4.4971    0.0000 C   0  0  0  0  0  0  0  0  0  0  0  0
    1.2853   -3.2836    0.0000 N   0  0  0  0  0  0  0  0  0  0  0  0
    2.7118   -3.7471    0.0000 N   0  0  0  0  0  0  0  0  0  0  0  0
    2.7118   -5.2471    0.0000 N   0  0  0  0  0  0  0  0  0  0  0  0
    1.2853   -5.7107    0.0000 N   0  0  0  0  0  0  0  0  0  0  0  0
    0.8217   -7.1373    0.0000 C   0  0  0  0  0  0  0  0  0  0  0  0
   -0.6455   -7.4491    0.0000 C   0  0  0  0  0  0  0  0  0  0  0  0
   -1.1090   -8.8757    0.0000 C   0  0  0  0  0  0  0  0  0  0  0  0
   -0.1053   -9.9904    0.0000 C   0  0  0  0  0  0  0  0  0  0  0  0
   -0.5689  -11.4170    0.0000 C   0  0  0  0  0  0  0  0  0  0  0  0
   -2.0361  -11.7289    0.0000 C   0  0  0  0  0  0  0  0  0  0  0  0
   -2.4996  -13.1555    0.0000 C   0  0  0  0  0  0  0  0  0  0  0  0
   -1.4959  -14.2702    0.0000 C   0  0  0  0  0  0  0  0  0  0  0  0
   -1.9594  -15.6968    0.0000 C   0  0  0  0  0  0  0  0  0  0  0  0
   -3.4266  -16.0086    0.0000 C   0  0  0  0  0  0  0  0  0  0  0  0
   -3.8902  -17.4352    0.0000 C   0  0  0  0  0  0  0  0  0  0  0  0
   -2.8865  -18.5499    0.0000 C   0  0  0  0  0  0  0  0  0  0  0  0
   -1.4193  -18.2381    0.0000 C   0  0  0  0  0  0  0  0  0  0  0  0
   -0.9557  -16.8115    0.0000 C   0  0  0  0  0  0  0  0  0  0  0  0
   -0.0287  -13.9583    0.0000 C   0  0  0  0  0  0  0  0  0  0  0  0
    0.4348  -12.5317    0.0000 C   0  0  0  0  0  0  0  0  0  0  0  0
    1.3619   -9.6786    0.0000 C   0  0  0  0  0  0  0  0  0  0  0  0
    1.8254   -8.2520    0.0000 C   0  0  0  0  0  0  0  0  0  0  0  0
    3.2926   -7.9401    0.0000 N   0  0  0  0  0  0  0  0  0  0  0  0
    3.7562   -6.5135    0.0000 C   0  0  0  0  0  0  0  0  0  0  0  0
    5.2234   -6.2017    0.0000 N   0  0  0  0  0  0  0  0  0  0  0  0
    6.2271   -7.3164    0.0000 N   0  0  0  0  0  0  0  0  0  0  0  0
    5.7636   -8.7430    0.0000 N   0  0  0  0  0  0  0  0  0  0  0  0
    4.2963   -9.0548    0.0000 N   0  0  0  0  0  0  0  0  0  0  0  0
    3.8328  -10.4814    0.0000 C   0  0  0  0  0  0  0  0  0  0  0  0
    4.8365  -11.5961    0.0000 C   0  0  0  0  0  0  0  0  0  0  0  0
    4.3730  -13.0227    0.0000 C   0  0  0  0  0  0  0  0  0  0  0  0
    2.9058  -13.3346    0.0000 C   0  0  0  0  0  0  0  0  0  0  0  0
    2.4422  -14.7612    0.0000 C   0  0  0  0  0  0  0  0  0  0  0  0
    3.4459  -15.8759    0.0000 C   0  0  0  0  0  0  0  0  0  0  0  0
    2.9824  -17.3025    0.0000 C   0  0  0  0  0  0  0  0  0  0  0  0
    1.5152  -17.6143    0.0000 C   0  0  0  0  0  0  0  0  0  0  0  0
    0.5115  -16.4996    0.0000 C   0  0  0  0  0  0  0  0  0  0  0  0
    0.9750  -15.0730    0.0000 C   0  0  0  0  0  0  0  0  0  0  0  0
    1.9021  -12.2199    0.0000 C   0  0  0  0  0  0  0  0  0  0  0  0
    2.3656  -10.7933    0.0000 C   0  0  0  0  0  0  0  0  0  0  0  0
    0.3808   -2.1595    0.0000 C   0  0  0  0  0  0  0  0  0  0  0  0
    1.6798   -1.4095    0.0000 C   0  0  0  0  0  0  0  0  0  0  0  0
  1  2  1  0
  2  3  2  0
  3  4  1  0
  4  5  2  0
  5  6  1  0
  6  7  2  0
  7  8  1  0
  7  9  1  0
  9 10  1  0
 10 11  1  0
 11 12  2  0
 12 13  1  0
 13 14  2  0
 14 15  1  0
 15 16  1  0
 16 17  2  0
 17 18  1  0
 18 19  2  0
 19 20  1  0
 20 21  1  0
 21 22  2  0
 22 23  1  0
 23 24  2  0
 24 25  1  0
 25 26  2  0
 26 27  1  0
 27 28  2  0
 28 29  1  0
 29 30  2  0
 30 31  1  0
 31 32  2  0
 32 33  1  0
 33 34  2  0
 28 35  1  0
 35 36  2  0
 24 37  1  0
 37 38  2  0
 38 39  1  0
 39 40  1  0
 40 41  2  0
 41 42  1  0
 42 43  2  0
 43 44  1  0
 44 45  1  0
 45 46  2  0
 46 47  1  0
 47 48  2  0
 48 49  1  0
 49 50  2  0
 50 51  1  0
 51 52  2  0
 52 53  1  0
 53 54  2  0
 48 55  1  0
 55 56  2  0
  9 57  1  0
 57 58  2  0
 58  2  1  0
 15 10  1  0
 20 16  1  0
 38 21  1  0
 44 39  1  0
 56 45  1  0
 36 25  1  0
 54 49  1  0
 34 29  1  0
M  END
>  <Title>  (901) 
idABIQgen8

$$$$

     RDKit          2D

 49 55  0  0  0  0  0  0  0  0999 V2000
    3.0000    0.0000    0.0000 C   0  0  0  0  0  0  0  0  0  0  0  0
    1.5000    0.0000    0.0000 C   0  0  0  0  0  0  0  0  0  0  0  0
    0.7500   -1.2990    0.0000 C   0  0  0  0  0  0  0  0  0  0  0  0
   -0.7500   -1.2990    0.0000 C   0  0  0  0  0  0  0  0  0  0  0  0
   -1.5000    0.0000    0.0000 C   0  0  0  0  0  0  0  0  0  0  0  0
   -3.0000    0.0000    0.0000 C   0  0  0  0  0  0  0  0  0  0  0  0
   -3.7500   -1.2990    0.0000 O   0  0  0  0  0  0  0  0  0  0  0  0
   -3.7500    1.2990    0.0000 N   0  0  0  0  0  0  0  0  0  0  0  0
   -5.2500    1.2990    0.0000 C   0  0  0  0  0  0  0  0  0  0  0  0
   -6.1317    0.0855    0.0000 N   0  0  0  0  0  0  0  0  0  0  0  0
   -7.5583    0.5490    0.0000 N   0  0  0  0  0  0  0  0  0  0  0  0
   -7.5583    2.0490    0.0000 N   0  0  0  0  0  0  0  0  0  0  0  0
   -6.1317    2.5126    0.0000 N   0  0  0  0  0  0  0  0  0  0  0  0
   -5.6682    3.9391    0.0000 C   0  0  0  0  0  0  0  0  0  0  0  0
   -4.2009    4.2510    0.0000 C   0  0  0  0  0  0  0  0  0  0  0  0
   -3.7374    5.6776    0.0000 C   0  0  0  0  0  0  0  0  0  0  0  0
   -4.7411    6.7923    0.0000 C   0  0  0  0  0  0  0  0  0  0  0  0
   -4.2776    8.2189    0.0000 C   0  0  0  0  0  0  0  0  0  0  0  0
   -5.2813    9.3336    0.0000 O   0  0  0  0  0  0  0  0  0  0  0  0
   -2.8104    8.5308    0.0000 N   0  0  0  0  0  0  0  0  0  0  0  0
   -2.3468    9.9574    0.0000 C   0  0  0  0  0  0  0  0  0  0  0  0
   -3.2285   11.1709    0.0000 N   0  0  0  0  0  0  0  0  0  0  0  0
   -2.3468   12.3844    0.0000 N   0  0  0  0  0  0  0  0  0  0  0  0
   -0.9202   11.9209    0.0000 N   0  0  0  0  0  0  0  0  0  0  0  0
   -0.9202   10.4209    0.0000 N   0  0  0  0  0  0  0  0  0  0  0  0
    0.2933    9.5392    0.0000 C   0  0  0  0  0  0  0  0  0  0  0  0
    0.2933    8.0392    0.0000 N   0  0  0  0  0  0  0  0  0  0  0  0
    1.7199    7.5757    0.0000 N   0  0  0  0  0  0  0  0  0  0  0  0
    2.6015    8.7892    0.0000 N   0  0  0  0  0  0  0  0  0  0  0  0
    1.7199   10.0027    0.0000 N   0  0  0  0  0  0  0  0  0  0  0  0
    2.1834   11.4293    0.0000 C   0  0  0  0  0  0  0  0  0  0  0  0
    3.6506   11.7412    0.0000 C   0  0  0  0  0  0  0  0  0  0  0  0
    4.1141   13.1678    0.0000 C   0  0  0  0  0  0  0  0  0  0  0  0
    3.1104   14.2825    0.0000 C   0  0  0  0  0  0  0  0  0  0  0  0
    1.6432   13.9706    0.0000 C   0  0  0  0  0  0  0  0  0  0  0  0
    1.1797   12.5440    0.0000 C   0  0  0  0  0  0  0  0  0  0  0  0
   -6.2083    6.4805    0.0000 C   0  0  0  0  0  0  0  0  0  0  0  0
   -6.6718    5.0539    0.0000 C   0  0  0  0  0  0  0  0  0  0  0  0
   -8.1391    4.7420    0.0000 C   0  0  0  0  0  0  0  0  0  0  0  0
   -9.1428    5.8567    0.0000 C   0  0  0  0  0  0  0  0  0  0  0  0
  -10.6100    5.5448    0.0000 C   0  0  0  0  0  0  0  0  0  0  0  0
  -11.0735    4.1183    0.0000 C   0  0  0  0  0  0  0  0  0  0  0  0
  -12.5407    3.8064    0.0000 C   0  0  0  0  0  0  0  0  0  0  0  0
  -10.0698    3.0035    0.0000 C   0  0  0  0  0  0  0  0  0  0  0  0
  -10.5333    1.5770    0.0000 O   0  0  0  0  0  0  0  0  0  0  0  0
   -8.6026    3.3154    0.0000 N   0  0  0  0  0  0  0  0  0  0  0  0
   -0.7500    1.2990    0.0000 C   0  0  0  0  0  0  0  0  0  0  0  0
   -1.5000    2.5981    0.0000 O   0  0  0  0  0  0  0  0  0  0  0  0
    0.7500    1.2990    0.0000 N   0  0  0  0  0  0  0  0  0  0  0  0
  1  2  1  0
  2  3  2  0
  3  4  1  0
  4  5  2  0
  5  6  1  0
  6  7  2  0
  6  8  1  0
  8  9  1  0
  9 10  2  0
 10 11  1  0
 11 12  2  0
 12 13  1  0
 13 14  1  0
 14 15  2  0
 15 16  1  0
 16 17  2  0
 17 18  1  0
 18 19  2  0
 18 20  1  0
 20 21  1  0
 21 22  2  0
 22 23  1  0
 23 24  2  0
 24 25  1  0
 25 26  1  0
 26 27  2  0
 27 28  1  0
 28 29  2  0
 29 30  1  0
 30 31  1  0
 31 32  2  0
 32 33  1  0
 33 34  2  0
 34 35  1  0
 35 36  2  0
 17 37  1  0
 37 38  2  0
 38 39  1  0
 39 40  2  0
 40 41  1  0
 41 42  2  0
 42 43  1  0
 42 44  1  0
 44 45  2  0
 44 46  1  0
  5 47  1  0
 47 48  2  0
 47 49  1  0
 49  2  1  0
 13  9  1  0
 38 14  1  0
 46 39  1  0
 25 21  1  0
 30 26  1  0
 36 31  1  0
M  END
>  <Title>  (902) 
idABIRgen8

$$$$

     RDKit          2D

 35 40  0  0  0  0  0  0  0  0999 V2000
    3.0000    0.0000    0.0000 C   0  0  0  0  0  0  0  0  0  0  0  0
    1.5000    0.0000    0.0000 C   0  0  0  0  0  0  0  0  0  0  0  0
    0.7500   -1.2990    0.0000 C   0  0  0  0  0  0  0  0  0  0  0  0
   -0.7500   -1.2990    0.0000 C   0  0  0  0  0  0  0  0  0  0  0  0
   -1.5000    0.0000    0.0000 C   0  0  0  0  0  0  0  0  0  0  0  0
   -3.0000    0.0000    0.0000 C   0  0  0  0  0  0  0  0  0  0  0  0
   -3.8817   -1.2135    0.0000 N   0  0  0  0  0  0  0  0  0  0  0  0
   -5.3083   -0.7500    0.0000 N   0  0  0  0  0  0  0  0  0  0  0  0
   -5.3083    0.7500    0.0000 N   0  0  0  0  0  0  0  0  0  0  0  0
   -3.8817    1.2135    0.0000 N   0  0  0  0  0  0  0  0  0  0  0  0
   -3.4182    2.6401    0.0000 C   0  0  0  0  0  0  0  0  0  0  0  0
   -1.9509    2.9520    0.0000 C   0  0  0  0  0  0  0  0  0  0  0  0
   -1.4874    4.3786    0.0000 C   0  0  0  0  0  0  0  0  0  0  0  0
   -2.4911    5.4933    0.0000 C   0  0  0  0  0  0  0  0  0  0  0  0
   -3.9583    5.1814    0.0000 C   0  0  0  0  0  0  0  0  0  0  0  0
   -4.4218    3.7548    0.0000 C   0  0  0  0  0  0  0  0  0  0  0  0
   -5.8891    3.4430    0.0000 C   0  0  0  0  0  0  0  0  0  0  0  0
   -6.4992    2.0726    0.0000 N   0  0  0  0  0  0  0  0  0  0  0  0
   -7.9910    2.2294    0.0000 N   0  0  0  0  0  0  0  0  0  0  0  0
   -8.3028    3.6967    0.0000 N   0  0  0  0  0  0  0  0  0  0  0  0
   -7.0038    4.4467    0.0000 N   0  0  0  0  0  0  0  0  0  0  0  0
   -6.8470    5.9384    0.0000 C   0  0  0  0  0  0  0  0  0  0  0  0
   -5.4767    6.5485    0.0000 C   0  0  0  0  0  0  0  0  0  0  0  0
   -5.3199    8.0403    0.0000 C   0  0  0  0  0  0  0  0  0  0  0  0
   -6.5334    8.9220    0.0000 C   0  0  0  0  0  0  0  0  0  0  0  0
   -6.3766   10.4138    0.0000 C   0  0  0  0  0  0  0  0  0  0  0  0
   -5.0063   11.0239    0.0000 C   0  0  0  0  0  0  0  0  0  0  0  0
   -4.8495   12.5157    0.0000 C   0  0  0  0  0  0  0  0  0  0  0  0
   -6.0630   13.3974    0.0000 C   0  0  0  0  0  0  0  0  0  0  0  0
   -7.4333   12.7872    0.0000 C   0  0  0  0  0  0  0  0  0  0  0  0
   -7.5901   11.2955    0.0000 C   0  0  0  0  0  0  0  0  0  0  0  0
   -7.9037    8.3119    0.0000 C   0  0  0  0  0  0  0  0  0  0  0  0
   -8.0605    6.8201    0.0000 C   0  0  0  0  0  0  0  0  0  0  0  0
   -0.7500    1.2990    0.0000 C   0  0  0  0  0  0  0  0  0  0  0  0
    0.7500    1.2990    0.0000 C   0  0  0  0  0  0  0  0  0  0  0  0
  1  2  1  0
  2  3  2  0
  3  4  1  0
  4  5  2  0
  5  6  1  0
  6  7  2  0
  7  8  1  0
  8  9  2  0
  9 10  1  0
 10 11  1  0
 11 12  1  0
 12 13  1  0
 13 14  1  0
 14 15  1  0
 15 16  1  0
 16 17  1  0
 17 18  2  0
 18 19  1  0
 19 20  2  0
 20 21  1  0
 21 22  1  0
 22 23  2  0
 23 24  1  0
 24 25  2  0
 25 26  1  0
 26 27  2  0
 27 28  1  0
 28 29  2  0
 29 30  1  0
 30 31  2  0
 25 32  1  0
 32 33  2  0
  5 34  1  0
 34 35  2  0
 35  2  1  0
 10  6  1  0
 16 11  1  0
 21 17  1  0
 33 22  1  0
 31 26  1  0
M  END
>  <Title>  (903) 
idABISgen8

$$$$

     RDKit          2D

 17 17  0  0  0  0  0  0  0  0999 V2000
    5.3444    0.0000    0.0000 C   0  0  0  0  0  0  0  0  0  0  0  0
    3.8444    0.0000    0.0000 C   0  0  0  0  0  0  0  0  0  0  0  0
    3.5517   -1.4712    0.0000 C   0  0  0  0  0  0  0  0  0  0  0  0
    2.7184   -2.7184    0.0000 C   0  0  0  0  0  0  0  0  0  0  0  0
    1.4712   -3.5517    0.0000 C   0  0  0  0  0  0  0  0  0  0  0  0
   -0.0000   -3.8444    0.0000 C   0  0  0  0  0  0  0  0  0  0  0  0
   -1.4712   -3.5517    0.0000 C   0  0  0  0  0  0  0  0  0  0  0  0
   -2.7184   -2.7184    0.0000 C   0  0  0  0  0  0  0  0  0  0  0  0
   -3.5517   -1.4712    0.0000 C   0  0  0  0  0  0  0  0  0  0  0  0
   -3.8444    0.0000    0.0000 C   0  0  0  0  0  0  0  0  0  0  0  0
   -3.5517    1.4712    0.0000 C   0  0  0  0  0  0  0  0  0  0  0  0
   -2.7184    2.7184    0.0000 C   0  0  0  0  0  0  0  0  0  0  0  0
   -1.4712    3.5517    0.0000 C   0  0  0  0  0  0  0  0  0  0  0  0
    0.0000    3.8444    0.0000 C   0  0  0  0  0  0  0  0  0  0  0  0
    1.4712    3.5517    0.0000 C   0  0  0  0  0  0  0  0  0  0  0  0
    2.7184    2.7184    0.0000 C   0  0  0  0  0  0  0  0  0  0  0  0
    3.5517    1.4712    0.0000 N   0  0  0  0  0  0  0  0  0  0  0  0
  1  2  1  0
  2  3  2  0
  3  4  1  0
  4  5  2  0
  5  6  1  0
  6  7  2  0
  7  8  1  0
  8  9  2  0
  9 10  1  0
 10 11  2  0
 11 12  1  0
 12 13  2  0
 13 14  1  0
 14 15  2  0
 15 16  1  0
 16 17  1  0
 17  2  1  0
M  END
>  <Title>  (904) 
idABITgen8

$$$$

     RDKit          2D

 19 19  0  0  0  0  0  0  0  0999 V2000
    6.3316   -1.2990    0.0000 C   0  0  0  0  0  0  0  0  0  0  0  0
    5.5816    0.0000    0.0000 O   0  0  0  0  0  0  0  0  0  0  0  0
    4.0816    0.0000    0.0000 C   0  0  0  0  0  0  0  0  0  0  0  0
    3.8060    1.4745    0.0000 C   0  0  0  0  0  0  0  0  0  0  0  0
    3.0164    2.7498    0.0000 C   0  0  0  0  0  0  0  0  0  0  0  0
    1.8193    3.6537    0.0000 C   0  0  0  0  0  0  0  0  0  0  0  0
    0.3766    4.0642    0.0000 C   0  0  0  0  0  0  0  0  0  0  0  0
   -1.1170    3.9258    0.0000 C   0  0  0  0  0  0  0  0  0  0  0  0
   -2.4597    3.2572    0.0000 C   0  0  0  0  0  0  0  0  0  0  0  0
   -3.4703    2.1487    0.0000 C   0  0  0  0  0  0  0  0  0  0  0  0
   -4.0121    0.7500    0.0000 C   0  0  0  0  0  0  0  0  0  0  0  0
   -4.0121   -0.7500    0.0000 C   0  0  0  0  0  0  0  0  0  0  0  0
   -3.4703   -2.1487    0.0000 C   0  0  0  0  0  0  0  0  0  0  0  0
   -2.4597   -3.2572    0.0000 C   0  0  0  0  0  0  0  0  0  0  0  0
   -1.1170   -3.9258    0.0000 C   0  0  0  0  0  0  0  0  0  0  0  0
    0.3766   -4.0642    0.0000 C   0  0  0  0  0  0  0  0  0  0  0  0
    1.8193   -3.6537    0.0000 C   0  0  0  0  0  0  0  0  0  0  0  0
    3.0164   -2.7498    0.0000 C   0  0  0  0  0  0  0  0  0  0  0  0
    3.8060   -1.4745    0.0000 C   0  0  0  0  0  0  0  0  0  0  0  0
  1  2  1  0
  2  3  1  0
  3  4  2  0
  4  5  1  0
  5  6  2  0
  6  7  1  0
  7  8  2  0
  8  9  1  0
  9 10  2  0
 10 11  1  0
 11 12  2  0
 12 13  1  0
 13 14  2  0
 14 15  1  0
 15 16  2  0
 16 17  1  0
 17 18  2  0
 18 19  1  0
 19  3  1  0
M  END
>  <Title>  (905) 
idABIUgen8

$$$$

     RDKit          2D

 11 11  0  0  0  0  0  0  0  0999 V2000
    3.4598   -0.0000    0.0000 C   0  0  0  0  0  0  0  0  0  0  0  0
    1.9598    0.0000    0.0000 C   0  0  0  0  0  0  0  0  0  0  0  0
    1.3858   -1.3858    0.0000 C   0  0  0  0  0  0  0  0  0  0  0  0
   -0.0000   -1.9598    0.0000 C   0  0  0  0  0  0  0  0  0  0  0  0
   -1.3858   -1.3858    0.0000 C   0  0  0  0  0  0  0  0  0  0  0  0
   -1.9598    0.0000    0.0000 C   0  0  0  0  0  0  0  0  0  0  0  0
   -1.3858    1.3858    0.0000 C   0  0  0  0  0  0  0  0  0  0  0  0
   -2.4465    2.4465    0.0000 O   0  0  0  0  0  0  0  0  0  0  0  0
    0.0000    1.9598    0.0000 C   0  0  0  0  0  0  0  0  0  0  0  0
    0.0000    3.4598    0.0000 O   0  0  0  0  0  0  0  0  0  0  0  0
    1.3858    1.3858    0.0000 C   0  0  0  0  0  0  0  0  0  0  0  0
  1  2  1  0
  2  3  2  0
  3  4  1  0
  4  5  2  0
  5  6  1  0
  6  7  2  0
  7  8  1  0
  7  9  1  0
  9 10  1  0
  9 11  1  0
 11  2  1  0
M  END
>  <Title>  (906) 
idABIVgen8

$$$$

     RDKit          2D

 11 11  0  0  0  0  0  0  0  0999 V2000
    3.9271    0.0000    0.0000 O   0  0  0  0  0  0  0  0  0  0  0  0
    2.4271    0.0000    0.0000 C   0  0  0  0  0  0  0  0  0  0  0  0
    1.9635   -1.4266    0.0000 C   0  0  0  0  0  0  0  0  0  0  0  0
    0.7500   -2.3083    0.0000 C   0  0  0  0  0  0  0  0  0  0  0  0
   -0.7500   -2.3083    0.0000 C   0  0  0  0  0  0  0  0  0  0  0  0
   -1.9635   -1.4266    0.0000 C   0  0  0  0  0  0  0  0  0  0  0  0
   -2.4271    0.0000    0.0000 C   0  0  0  0  0  0  0  0  0  0  0  0
   -1.9635    1.4266    0.0000 C   0  0  0  0  0  0  0  0  0  0  0  0
   -0.7500    2.3083    0.0000 C   0  0  0  0  0  0  0  0  0  0  0  0
    0.7500    2.3083    0.0000 C   0  0  0  0  0  0  0  0  0  0  0  0
    1.9635    1.4266    0.0000 C   0  0  0  0  0  0  0  0  0  0  0  0
  1  2  1  0
  2  3  2  0
  3  4  1  0
  4  5  2  0
  5  6  1  0
  6  7  2  0
  7  8  1  0
  8  9  2  0
  9 10  1  0
 10 11  2  0
 11  2  1  0
M  END
>  <Title>  (907) 
idABIWgen8

$$$$

     RDKit          2D

 23 23  0  0  0  0  0  0  0  0999 V2000
    6.2943    0.0000    0.0000 C   0  0  0  0  0  0  0  0  0  0  0  0
    4.7943    0.0000    0.0000 C   0  0  0  0  0  0  0  0  0  0  0  0
    4.5597   -1.4815    0.0000 C   0  0  0  0  0  0  0  0  0  0  0  0
    3.8787   -2.8180    0.0000 C   0  0  0  0  0  0  0  0  0  0  0  0
    2.8180   -3.8787    0.0000 C   0  0  0  0  0  0  0  0  0  0  0  0
    1.4815   -4.5597    0.0000 C   0  0  0  0  0  0  0  0  0  0  0  0
   -0.0000   -4.7943    0.0000 C   0  0  0  0  0  0  0  0  0  0  0  0
   -0.0000   -6.2943    0.0000 F   0  0  0  0  0  0  0  0  0  0  0  0
   -1.4815   -4.5597    0.0000 C   0  0  0  0  0  0  0  0  0  0  0  0
   -1.9451   -5.9863    0.0000 C   0  0  0  0  0  0  0  0  0  0  0  0
   -2.8180   -3.8787    0.0000 C   0  0  0  0  0  0  0  0  0  0  0  0
   -3.8787   -2.8180    0.0000 C   0  0  0  0  0  0  0  0  0  0  0  0
   -4.5597   -1.4815    0.0000 C   0  0  0  0  0  0  0  0  0  0  0  0
   -4.7943    0.0000    0.0000 C   0  0  0  0  0  0  0  0  0  0  0  0
   -4.5597    1.4815    0.0000 C   0  0  0  0  0  0  0  0  0  0  0  0
   -3.8787    2.8180    0.0000 C   0  0  0  0  0  0  0  0  0  0  0  0
   -2.8180    3.8787    0.0000 C   0  0  0  0  0  0  0  0  0  0  0  0
   -1.4815    4.5597    0.0000 C   0  0  0  0  0  0  0  0  0  0  0  0
    0.0000    4.7943    0.0000 C   0  0  0  0  0  0  0  0  0  0  0  0
    1.4815    4.5597    0.0000 C   0  0  0  0  0  0  0  0  0  0  0  0
    2.8180    3.8787    0.0000 C   0  0  0  0  0  0  0  0  0  0  0  0
    3.8787    2.8180    0.0000 C   0  0  0  0  0  0  0  0  0  0  0  0
    4.5597    1.4815    0.0000 N   0  0  0  0  0  0  0  0  0  0  0  0
  1  2  1  0
  2  3  2  0
  3  4  1  0
  4  5  2  0
  5  6  1  0
  6  7  2  0
  7  8  1  0
  7  9  1  0
  9 10  1  0
  9 11  2  0
 11 12  1  0
 12 13  2  0
 13 14  1  0
 14 15  2  0
 15 16  1  0
 16 17  2  0
 17 18  1  0
 18 19  2  0
 19 20  1  0
 20 21  2  0
 21 22  1  0
 22 23  1  0
 23  2  1  0
M  END
>  <Title>  (908) 
idABIXgen8

$$$$

     RDKit          2D

 51 57  0  0  0  0  0  0  0  0999 V2000
    3.4598    0.0000    0.0000 C   0  0  0  0  0  0  0  0  0  0  0  0
    1.9598    0.0000    0.0000 C   0  0  0  0  0  0  0  0  0  0  0  0
    1.3858    1.3858    0.0000 C   0  0  0  0  0  0  0  0  0  0  0  0
   -0.0000    1.9598    0.0000 C   0  0  0  0  0  0  0  0  0  0  0  0
   -1.3858    1.3858    0.0000 C   0  0  0  0  0  0  0  0  0  0  0  0
   -2.4465    2.4465    0.0000 C   0  0  0  0  0  0  0  0  0  0  0  0
   -3.8954    2.0583    0.0000 C   0  0  0  0  0  0  0  0  0  0  0  0
   -4.9560    3.1189    0.0000 C   0  0  0  0  0  0  0  0  0  0  0  0
   -4.5678    4.5678    0.0000 C   0  0  0  0  0  0  0  0  0  0  0  0
   -5.6285    5.6285    0.0000 C   0  0  0  0  0  0  0  0  0  0  0  0
   -3.1189    4.9560    0.0000 C   0  0  0  0  0  0  0  0  0  0  0  0
   -2.7307    6.4049    0.0000 O   0  0  0  0  0  0  0  0  0  0  0  0
   -2.0583    3.8954    0.0000 N   0  0  0  0  0  0  0  0  0  0  0  0
   -1.9598    0.0000    0.0000 C   0  0  0  0  0  0  0  0  0  0  0  0
   -3.4598    0.0000    0.0000 C   0  0  0  0  0  0  0  0  0  0  0  0
   -4.2098    1.2990    0.0000 C   0  0  0  0  0  0  0  0  0  0  0  0
   -5.7098    1.2990    0.0000 C   0  0  0  0  0  0  0  0  0  0  0  0
   -6.4598    2.5981    0.0000 C   0  0  0  0  0  0  0  0  0  0  0  0
   -6.4598    0.0000    0.0000 C   0  0  0  0  0  0  0  0  0  0  0  0
   -5.7098   -1.2990    0.0000 C   0  0  0  0  0  0  0  0  0  0  0  0
   -4.2098   -1.2990    0.0000 C   0  0  0  0  0  0  0  0  0  0  0  0
   -3.4598   -2.5981    0.0000 N   0  0  0  0  0  0  0  0  0  0  0  0
   -1.9598   -2.5981    0.0000 N   0  0  0  0  0  0  0  0  0  0  0  0
   -1.2098   -3.8971    0.0000 N   0  0  0  0  0  0  0  0  0  0  0  0
   -1.9598   -5.1962    0.0000 N   0  0  0  0  0  0  0  0  0  0  0  0
   -3.4598   -5.1962    0.0000 C   0  0  0  0  0  0  0  0  0  0  0  0
   -4.2098   -3.8971    0.0000 N   0  0  0  0  0  0  0  0  0  0  0  0
   -5.7098   -3.8971    0.0000 C   0  0  0  0  0  0  0  0  0  0  0  0
   -6.5915   -2.6836    0.0000 N   0  0  0  0  0  0  0  0  0  0  0  0
   -8.0181   -3.1471    0.0000 C   0  0  0  0  0  0  0  0  0  0  0  0
   -8.0181   -4.6471    0.0000 C   0  0  0  0  0  0  0  0  0  0  0  0
   -6.5915   -5.1106    0.0000 C   0  0  0  0  0  0  0  0  0  0  0  0
   -6.1280   -6.5372    0.0000 N   0  0  0  0  0  0  0  0  0  0  0  0
   -4.7014   -7.0008    0.0000 N   0  0  0  0  0  0  0  0  0  0  0  0
   -4.7014   -8.5008    0.0000 N   0  0  0  0  0  0  0  0  0  0  0  0
   -6.1280   -8.9643    0.0000 N   0  0  0  0  0  0  0  0  0  0  0  0
   -7.0097   -7.7508    0.0000 C   0  0  0  0  0  0  0  0  0  0  0  0
   -8.5097   -7.7508    0.0000 C   0  0  0  0  0  0  0  0  0  0  0  0
   -9.2597   -9.0498    0.0000 C   0  0  0  0  0  0  0  0  0  0  0  0
  -10.7597   -9.0498    0.0000 C   0  0  0  0  0  0  0  0  0  0  0  0
  -11.5097   -7.7508    0.0000 C   0  0  0  0  0  0  0  0  0  0  0  0
  -13.0097   -7.7508    0.0000 C   0  0  0  0  0  0  0  0  0  0  0  0
  -10.7597   -6.4517    0.0000 N   0  0  0  0  0  0  0  0  0  0  0  0
   -9.2597   -6.4517    0.0000 N   0  0  0  0  0  0  0  0  0  0  0  0
   -1.3858   -1.3858    0.0000 C   0  0  0  0  0  0  0  0  0  0  0  0
    0.0000   -1.9598    0.0000 C   0  0  0  0  0  0  0  0  0  0  0  0
    1.3858   -1.3858    0.0000 C   0  0  0  0  0  0  0  0  0  0  0  0
    2.4465   -2.4465    0.0000 C   0  0  0  0  0  0  0  0  0  0  0  0
    3.8954   -2.0583    0.0000 O   0  0  0  0  0  0  0  0  0  0  0  0
    2.0583   -3.8954    0.0000 N   0  0  0  0  0  0  0  0  0  0  0  0
    3.1189   -4.9560    0.0000 O   0  0  0  0  0  0  0  0  0  0  0  0
  1  2  1  0
  2  3  2  0
  3  4  1  0
  4  5  2  0
  5  6  1  0
  6  7  2  0
  7  8  1  0
  8  9  2  0
  9 10  1  0
  9 11  1  0
 11 12  2  0
 11 13  1  0
  5 14  1  0
 14 15  1  0
 15 16  2  0
 16 17  1  0
 17 18  1  0
 17 19  2  0
 19 20  1  0
 20 21  2  0
 21 22  1  0
 22 23  1  0
 23 24  2  0
 24 25  1  0
 25 26  2  0
 26 27  1  0
 27 28  1  0
 28 29  2  0
 29 30  1  0
 30 31  1  0
 31 32  1  0
 32 33  1  0
 33 34  1  0
 34 35  2  0
 35 36  1  0
 36 37  2  0
 37 38  1  0
 38 39  2  0
 39 40  1  0
 40 41  2  0
 41 42  1  0
 41 43  1  0
 43 44  2  0
 14 45  2  0
 45 46  1  0
 46 47  2  0
 47 48  1  0
 48 49  2  0
 48 50  1  0
 50 51  1  0
 47  2  1  0
 13  6  1  0
 21 15  1  0
 27 22  1  0
 32 28  1  0
 37 33  1  0
 44 38  1  0
M  END
>  <Title>  (909) 
idABIYgen8

$$$$

     RDKit          2D

 19 19  0  0  0  0  0  0  0  0999 V2000
    5.8191    0.0000    0.0000 O   0  0  0  0  0  0  0  0  0  0  0  0
    4.3191    0.0000    0.0000 C   0  0  0  0  0  0  0  0  0  0  0  0
    4.0586   -1.4772    0.0000 C   0  0  0  0  0  0  0  0  0  0  0  0
    3.3086   -2.7762    0.0000 C   0  0  0  0  0  0  0  0  0  0  0  0
    2.1595   -3.7404    0.0000 C   0  0  0  0  0  0  0  0  0  0  0  0
    0.7500   -4.2535    0.0000 C   0  0  0  0  0  0  0  0  0  0  0  0
   -0.7500   -4.2535    0.0000 C   0  0  0  0  0  0  0  0  0  0  0  0
   -2.1595   -3.7404    0.0000 C   0  0  0  0  0  0  0  0  0  0  0  0
   -3.3086   -2.7762    0.0000 C   0  0  0  0  0  0  0  0  0  0  0  0
   -4.0586   -1.4772    0.0000 C   0  0  0  0  0  0  0  0  0  0  0  0
   -4.3191    0.0000    0.0000 C   0  0  0  0  0  0  0  0  0  0  0  0
   -4.0586    1.4772    0.0000 C   0  0  0  0  0  0  0  0  0  0  0  0
   -3.3086    2.7762    0.0000 C   0  0  0  0  0  0  0  0  0  0  0  0
   -2.1595    3.7404    0.0000 C   0  0  0  0  0  0  0  0  0  0  0  0
   -0.7500    4.2535    0.0000 C   0  0  0  0  0  0  0  0  0  0  0  0
    0.7500    4.2535    0.0000 C   0  0  0  0  0  0  0  0  0  0  0  0
    2.1595    3.7404    0.0000 C   0  0  0  0  0  0  0  0  0  0  0  0
    3.3086    2.7762    0.0000 C   0  0  0  0  0  0  0  0  0  0  0  0
    4.0586    1.4772    0.0000 C   0  0  0  0  0  0  0  0  0  0  0  0
  1  2  1  0
  2  3  2  0
  3  4  1  0
  4  5  2  0
  5  6  1  0
  6  7  2  0
  7  8  1  0
  8  9  2  0
  9 10  1  0
 10 11  2  0
 11 12  1  0
 12 13  2  0
 13 14  1  0
 14 15  2  0
 15 16  1  0
 16 17  2  0
 17 18  1  0
 18 19  2  0
 19  2  1  0
M  END
>  <Title>  (910) 
idABIZgen8

$$$$

     RDKit          2D

 15 15  0  0  0  0  0  0  0  0999 V2000
    4.6339    0.0000    0.0000 C   0  0  0  0  0  0  0  0  0  0  0  0
    3.1339    0.0000    0.0000 C   0  0  0  0  0  0  0  0  0  0  0  0
    2.7750    1.4564    0.0000 C   0  0  0  0  0  0  0  0  0  0  0  0
    1.7803    2.5792    0.0000 C   0  0  0  0  0  0  0  0  0  0  0  0
    0.3778    3.1111    0.0000 C   0  0  0  0  0  0  0  0  0  0  0  0
   -1.1113    2.9303    0.0000 C   0  0  0  0  0  0  0  0  0  0  0  0
   -2.3458    2.0782    0.0000 C   0  0  0  0  0  0  0  0  0  0  0  0
   -3.4686    3.0729    0.0000 N   0  0  0  0  0  0  0  0  0  0  0  0
   -3.0429    0.7500    0.0000 C   0  0  0  0  0  0  0  0  0  0  0  0
   -3.0429   -0.7500    0.0000 C   0  0  0  0  0  0  0  0  0  0  0  0
   -2.3458   -2.0782    0.0000 C   0  0  0  0  0  0  0  0  0  0  0  0
   -1.1113   -2.9303    0.0000 C   0  0  0  0  0  0  0  0  0  0  0  0
    0.3778   -3.1111    0.0000 C   0  0  0  0  0  0  0  0  0  0  0  0
    1.7803   -2.5792    0.0000 C   0  0  0  0  0  0  0  0  0  0  0  0
    2.7750   -1.4564    0.0000 C   0  0  0  0  0  0  0  0  0  0  0  0
  1  2  1  0
  2  3  2  0
  3  4  1  0
  4  5  2  0
  5  6  1  0
  6  7  2  0
  7  8  1  0
  7  9  1  0
  9 10  1  0
 10 11  1  0
 11 12  1  0
 12 13  1  0
 13 14  1  0
 14 15  1  0
 15  2  1  0
M  END
>  <Title>  (911) 
idABJAgen8

$$$$

     RDKit          2D

 58 65  0  0  0  0  0  0  0  0999 V2000
   11.0358   -5.5244    0.0000 O   0  0  0  0  0  0  0  0  0  0  0  0
   10.6476   -6.9733    0.0000 C   0  0  0  0  0  0  0  0  0  0  0  0
   11.7082   -8.0340    0.0000 N   0  0  0  0  0  0  0  0  0  0  0  0
   13.1571   -7.6458    0.0000 C   0  0  0  0  0  0  0  0  0  0  0  0
   14.2178   -8.7064    0.0000 C   0  0  0  0  0  0  0  0  0  0  0  0
   13.8295  -10.1553    0.0000 C   0  0  0  0  0  0  0  0  0  0  0  0
   14.8902  -11.2160    0.0000 C   0  0  0  0  0  0  0  0  0  0  0  0
   16.3391  -10.8277    0.0000 C   0  0  0  0  0  0  0  0  0  0  0  0
   16.7273   -9.3788    0.0000 C   0  0  0  0  0  0  0  0  0  0  0  0
   15.6667   -8.3182    0.0000 C   0  0  0  0  0  0  0  0  0  0  0  0
    9.1987   -7.3616    0.0000 C   0  0  0  0  0  0  0  0  0  0  0  0
    8.1380   -6.3009    0.0000 C   0  0  0  0  0  0  0  0  0  0  0  0
    6.6891   -6.6891    0.0000 C   0  0  0  0  0  0  0  0  0  0  0  0
    6.3009   -8.1380    0.0000 C   0  0  0  0  0  0  0  0  0  0  0  0
    4.8520   -8.5262    0.0000 C   0  0  0  0  0  0  0  0  0  0  0  0
    3.7913   -7.4656    0.0000 C   0  0  0  0  0  0  0  0  0  0  0  0
    2.7307   -6.4049    0.0000 N   0  0  0  0  0  0  0  0  0  0  0  0
    3.1189   -4.9560    0.0000 N   0  0  0  0  0  0  0  0  0  0  0  0
    2.0583   -3.8954    0.0000 N   0  0  0  0  0  0  0  0  0  0  0  0
    2.4465   -2.4465    0.0000 N   0  0  0  0  0  0  0  0  0  0  0  0
    1.3858   -1.3858    0.0000 C   0  0  0  0  0  0  0  0  0  0  0  0
    1.9598    0.0000    0.0000 N   0  0  0  0  0  0  0  0  0  0  0  0
    1.3858    1.3858    0.0000 N   0  0  0  0  0  0  0  0  0  0  0  0
    0.0000    1.9598    0.0000 C   0  0  0  0  0  0  0  0  0  0  0  0
   -1.3858    1.3858    0.0000 N   0  0  0  0  0  0  0  0  0  0  0  0
   -1.9598    0.0000    0.0000 N   0  0  0  0  0  0  0  0  0  0  0  0
   -1.3858   -1.3858    0.0000 N   0  0  0  0  0  0  0  0  0  0  0  0
   -0.0000   -1.9598    0.0000 N   0  0  0  0  0  0  0  0  0  0  0  0
   -0.0000   -3.4598    0.0000 C   0  0  0  0  0  0  0  0  0  0  0  0
    1.2135   -4.3415    0.0000 C   0  0  0  0  0  0  0  0  0  0  0  0
    0.7500   -5.7681    0.0000 C   0  0  0  0  0  0  0  0  0  0  0  0
   -0.7500   -5.7681    0.0000 C   0  0  0  0  0  0  0  0  0  0  0  0
   -1.6317   -6.9816    0.0000 C   0  0  0  0  0  0  0  0  0  0  0  0
   -1.1682   -8.4082    0.0000 N   0  0  0  0  0  0  0  0  0  0  0  0
   -2.3817   -9.2899    0.0000 N   0  0  0  0  0  0  0  0  0  0  0  0
   -3.5952   -8.4082    0.0000 N   0  0  0  0  0  0  0  0  0  0  0  0
   -3.1317   -6.9816    0.0000 N   0  0  0  0  0  0  0  0  0  0  0  0
   -4.0134   -5.7681    0.0000 C   0  0  0  0  0  0  0  0  0  0  0  0
   -3.5498   -4.3415    0.0000 N   0  0  0  0  0  0  0  0  0  0  0  0
   -4.7634   -3.4598    0.0000 N   0  0  0  0  0  0  0  0  0  0  0  0
   -5.9769   -4.3415    0.0000 N   0  0  0  0  0  0  0  0  0  0  0  0
   -5.5134   -5.7681    0.0000 N   0  0  0  0  0  0  0  0  0  0  0  0
   -6.3950   -6.9816    0.0000 C   0  0  0  0  0  0  0  0  0  0  0  0
   -7.8868   -6.8248    0.0000 C   0  0  0  0  0  0  0  0  0  0  0  0
   -8.7685   -8.0384    0.0000 C   0  0  0  0  0  0  0  0  0  0  0  0
   -8.1584   -9.4087    0.0000 C   0  0  0  0  0  0  0  0  0  0  0  0
   -9.0401  -10.6222    0.0000 C   0  0  0  0  0  0  0  0  0  0  0  0
  -10.5319  -10.4654    0.0000 C   0  0  0  0  0  0  0  0  0  0  0  0
  -11.4135  -11.6789    0.0000 C   0  0  0  0  0  0  0  0  0  0  0  0
  -10.8034  -13.0493    0.0000 C   0  0  0  0  0  0  0  0  0  0  0  0
   -9.3116  -13.2061    0.0000 C   0  0  0  0  0  0  0  0  0  0  0  0
   -8.4300  -11.9925    0.0000 C   0  0  0  0  0  0  0  0  0  0  0  0
   -6.6666   -9.5655    0.0000 C   0  0  0  0  0  0  0  0  0  0  0  0
   -5.7849   -8.3520    0.0000 C   0  0  0  0  0  0  0  0  0  0  0  0
   -1.2135   -4.3415    0.0000 C   0  0  0  0  0  0  0  0  0  0  0  0
   -2.6401   -3.8780    0.0000 O   0  0  0  0  0  0  0  0  0  0  0  0
    7.3616   -9.1987    0.0000 C   0  0  0  0  0  0  0  0  0  0  0  0
    8.8104   -8.8104    0.0000 C   0  0  0  0  0  0  0  0  0  0  0  0
  1  2  2  0
  2  3  1  0
  3  4  1  0
  4  5  1  0
  5  6  2  0
  6  7  1  0
  7  8  2  0
  8  9  1  0
  9 10  2  0
  2 11  1  0
 11 12  2  0
 12 13  1  0
 13 14  2  0
 14 15  1  0
 15 16  2  0
 16 17  2  0
 17 18  1  0
 18 19  2  3
 19 20  1  0
 20 21  2  3
 21 22  1  0
 22 23  1  0
 23 24  1  0
 24 25  2  0
 25 26  1  0
 26 27  2  0
 27 28  1  0
 28 29  1  0
 29 30  2  0
 30 31  1  0
 31 32  2  0
 32 33  1  0
 33 34  2  0
 34 35  1  0
 35 36  2  0
 36 37  1  0
 37 38  1  0
 38 39  2  0
 39 40  1  0
 40 41  2  0
 41 42  1  0
 42 43  1  0
 43 44  2  0
 44 45  1  0
 45 46  2  0
 46 47  1  0
 47 48  2  0
 48 49  1  0
 49 50  2  0
 50 51  1  0
 51 52  2  0
 46 53  1  0
 53 54  1  0
 32 55  1  0
 55 56  2  0
 14 57  1  0
 57 58  2  0
 10  5  1  0
 58 11  1  0
 28 21  1  0
 55 29  1  0
 37 33  1  0
 42 38  1  0
 54 43  1  0
 52 47  1  0
M  END
>  <Title>  (912) 
idABJBgen8

$$$$

     RDKit          2D

 32 35  0  0  0  0  0  0  0  0999 V2000
    4.2098   -1.2990    0.0000 C   0  0  0  0  0  0  0  0  0  0  0  0
    3.4598   -0.0000    0.0000 O   0  0  0  0  0  0  0  0  0  0  0  0
    1.9598    0.0000    0.0000 C   0  0  0  0  0  0  0  0  0  0  0  0
    1.3858   -1.3858    0.0000 C   0  0  0  0  0  0  0  0  0  0  0  0
   -0.0000   -1.9598    0.0000 C   0  0  0  0  0  0  0  0  0  0  0  0
   -1.3858   -1.3858    0.0000 C   0  0  0  0  0  0  0  0  0  0  0  0
   -1.9598    0.0000    0.0000 C   0  0  0  0  0  0  0  0  0  0  0  0
   -1.3858    1.3858    0.0000 C   0  0  0  0  0  0  0  0  0  0  0  0
   -2.4465    2.4465    0.0000 N   0  0  0  0  0  0  0  0  0  0  0  0
   -2.0583    3.8954    0.0000 N   0  0  0  0  0  0  0  0  0  0  0  0
   -3.1189    4.9560    0.0000 N   0  0  0  0  0  0  0  0  0  0  0  0
   -4.5678    4.5678    0.0000 N   0  0  0  0  0  0  0  0  0  0  0  0
   -4.9560    3.1189    0.0000 N   0  0  0  0  0  0  0  0  0  0  0  0
   -3.8954    2.0583    0.0000 N   0  0  0  0  0  0  0  0  0  0  0  0
   -4.2836    0.6094    0.0000 C   0  0  0  0  0  0  0  0  0  0  0  0
   -5.7325    0.2211    0.0000 C   0  0  0  0  0  0  0  0  0  0  0  0
   -6.1207   -1.2278    0.0000 C   0  0  0  0  0  0  0  0  0  0  0  0
   -5.0601   -2.2884    0.0000 C   0  0  0  0  0  0  0  0  0  0  0  0
   -5.4483   -3.7373    0.0000 C   0  0  0  0  0  0  0  0  0  0  0  0
   -6.8972   -4.1255    0.0000 C   0  0  0  0  0  0  0  0  0  0  0  0
   -7.2854   -5.5744    0.0000 C   0  0  0  0  0  0  0  0  0  0  0  0
   -6.2247   -6.6351    0.0000 C   0  0  0  0  0  0  0  0  0  0  0  0
   -6.6130   -8.0840    0.0000 C   0  0  0  0  0  0  0  0  0  0  0  0
   -5.5523   -9.1446    0.0000 O   0  0  0  0  0  0  0  0  0  0  0  0
   -8.0619   -8.4722    0.0000 N   0  0  0  0  0  0  0  0  0  0  0  0
   -8.4501   -9.9211    0.0000 O   0  0  0  0  0  0  0  0  0  0  0  0
   -4.7759   -6.2469    0.0000 C   0  0  0  0  0  0  0  0  0  0  0  0
   -4.3876   -4.7980    0.0000 C   0  0  0  0  0  0  0  0  0  0  0  0
   -3.6112   -1.9002    0.0000 C   0  0  0  0  0  0  0  0  0  0  0  0
   -3.2229   -0.4513    0.0000 C   0  0  0  0  0  0  0  0  0  0  0  0
    0.0000    1.9598    0.0000 C   0  0  0  0  0  0  0  0  0  0  0  0
    1.3858    1.3858    0.0000 C   0  0  0  0  0  0  0  0  0  0  0  0
  1  2  1  0
  2  3  1  0
  3  4  2  0
  4  5  1  0
  5  6  2  0
  6  7  1  0
  7  8  2  0
  8  9  1  0
  9 10  1  0
 10 11  2  0
 11 12  1  0
 12 13  2  0
 13 14  1  0
 14 15  1  0
 15 16  2  0
 16 17  1  0
 17 18  2  0
 18 19  1  0
 19 20  2  0
 20 21  1  0
 21 22  2  0
 22 23  1  0
 23 24  2  0
 23 25  1  0
 25 26  1  0
 22 27  1  0
 27 28  1  0
 18 29  1  0
 29 30  2  0
  8 31  1  0
 31 32  2  0
 32  3  1  0
 14  9  1  0
 30 15  1  0
 28 19  1  0
M  END
>  <Title>  (913) 
idABJCgen8

$$$$

     RDKit          2D

 10 10  0  0  0  0  0  0  0  0999 V2000
    3.9786   -1.2990    0.0000 N   0  0  0  0  0  0  0  0  0  0  0  0
    3.2286   -0.0000    0.0000 C   0  0  0  0  0  0  0  0  0  0  0  0
    3.9786    1.2990    0.0000 O   0  0  0  0  0  0  0  0  0  0  0  0
    1.7286    0.0000    0.0000 C   0  0  0  0  0  0  0  0  0  0  0  0
    1.0777    1.3515    0.0000 C   0  0  0  0  0  0  0  0  0  0  0  0
   -0.3846    1.6852    0.0000 C   0  0  0  0  0  0  0  0  0  0  0  0
   -1.5574    0.7500    0.0000 C   0  0  0  0  0  0  0  0  0  0  0  0
   -1.5574   -0.7500    0.0000 C   0  0  0  0  0  0  0  0  0  0  0  0
   -0.3846   -1.6852    0.0000 C   0  0  0  0  0  0  0  0  0  0  0  0
    1.0777   -1.3515    0.0000 C   0  0  0  0  0  0  0  0  0  0  0  0
  1  2  1  0
  2  3  2  0
  2  4  1  0
  4  5  1  0
  5  6  2  0
  6  7  1  0
  7  8  1  0
  8  9  1  0
  9 10  1  0
 10  4  1  0
M  END
>  <Title>  (914) 
idABJDgen8

$$$$

     RDKit          2D

 17 17  0  0  0  0  0  0  0  0999 V2000
    5.3444    0.0000    0.0000 O   0  0  0  0  0  0  0  0  0  0  0  0
    3.8444    0.0000    0.0000 C   0  0  0  0  0  0  0  0  0  0  0  0
    3.5517   -1.4712    0.0000 C   0  0  0  0  0  0  0  0  0  0  0  0
    2.7184   -2.7184    0.0000 C   0  0  0  0  0  0  0  0  0  0  0  0
    1.4712   -3.5517    0.0000 C   0  0  0  0  0  0  0  0  0  0  0  0
   -0.0000   -3.8444    0.0000 C   0  0  0  0  0  0  0  0  0  0  0  0
   -1.4712   -3.5517    0.0000 C   0  0  0  0  0  0  0  0  0  0  0  0
   -2.7184   -2.7184    0.0000 C   0  0  0  0  0  0  0  0  0  0  0  0
   -3.5517   -1.4712    0.0000 C   0  0  0  0  0  0  0  0  0  0  0  0
   -3.8444    0.0000    0.0000 C   0  0  0  0  0  0  0  0  0  0  0  0
   -3.5517    1.4712    0.0000 C   0  0  0  0  0  0  0  0  0  0  0  0
   -2.7184    2.7184    0.0000 C   0  0  0  0  0  0  0  0  0  0  0  0
   -1.4712    3.5517    0.0000 C   0  0  0  0  0  0  0  0  0  0  0  0
    0.0000    3.8444    0.0000 C   0  0  0  0  0  0  0  0  0  0  0  0
    1.4712    3.5517    0.0000 C   0  0  0  0  0  0  0  0  0  0  0  0
    2.7184    2.7184    0.0000 C   0  0  0  0  0  0  0  0  0  0  0  0
    3.5517    1.4712    0.0000 C   0  0  0  0  0  0  0  0  0  0  0  0
  1  2  1  0
  2  3  2  0
  3  4  1  0
  4  5  2  0
  5  6  1  0
  6  7  2  0
  7  8  1  0
  8  9  2  0
  9 10  1  0
 10 11  2  0
 11 12  1  0
 12 13  2  0
 13 14  1  0
 14 15  2  0
 15 16  1  0
 16 17  2  0
 17  2  1  0
M  END
>  <Title>  (915) 
idABJEgen8

$$$$

     RDKit          2D

 17 17  0  0  0  0  0  0  0  0999 V2000
    5.3444    0.0000    0.0000 C   0  0  0  0  0  0  0  0  0  0  0  0
    3.8444    0.0000    0.0000 C   0  0  0  0  0  0  0  0  0  0  0  0
    3.5517   -1.4712    0.0000 C   0  0  0  0  0  0  0  0  0  0  0  0
    2.7184   -2.7184    0.0000 C   0  0  0  0  0  0  0  0  0  0  0  0
    1.4712   -3.5517    0.0000 C   0  0  0  0  0  0  0  0  0  0  0  0
   -0.0000   -3.8444    0.0000 C   0  0  0  0  0  0  0  0  0  0  0  0
   -1.4712   -3.5517    0.0000 C   0  0  0  0  0  0  0  0  0  0  0  0
   -2.7184   -2.7184    0.0000 C   0  0  0  0  0  0  0  0  0  0  0  0
   -3.5517   -1.4712    0.0000 C   0  0  0  0  0  0  0  0  0  0  0  0
   -3.8444    0.0000    0.0000 C   0  0  0  0  0  0  0  0  0  0  0  0
   -3.5517    1.4712    0.0000 C   0  0  0  0  0  0  0  0  0  0  0  0
   -2.7184    2.7184    0.0000 C   0  0  0  0  0  0  0  0  0  0  0  0
   -1.4712    3.5517    0.0000 C   0  0  0  0  0  0  0  0  0  0  0  0
    0.0000    3.8444    0.0000 C   0  0  0  0  0  0  0  0  0  0  0  0
    1.4712    3.5517    0.0000 C   0  0  0  0  0  0  0  0  0  0  0  0
    2.7184    2.7184    0.0000 C   0  0  0  0  0  0  0  0  0  0  0  0
    3.5517    1.4712    0.0000 C   0  0  0  0  0  0  0  0  0  0  0  0
  1  2  1  0
  2  3  2  0
  3  4  1  0
  4  5  2  0
  5  6  2  0
  6  7  2  0
  7  8  1  0
  8  9  2  0
  9 10  1  0
 10 11  2  0
 11 12  1  0
 12 13  2  0
 13 14  1  0
 14 15  2  0
 15 16  1  0
 16 17  2  0
 17  2  1  0
M  END
>  <Title>  (916) 
idABJFgen8

$$$$

     RDKit          2D

 21 21  0  0  0  0  0  0  0  0999 V2000
    8.0691   -1.2990    0.0000 O   0  0  0  0  0  0  0  0  0  0  0  0
    6.5691   -1.2990    0.0000 C   0  0  0  0  0  0  0  0  0  0  0  0
    5.8191    0.0000    0.0000 C   0  0  0  0  0  0  0  0  0  0  0  0
    4.3191    0.0000    0.0000 C   0  0  0  0  0  0  0  0  0  0  0  0
    4.0586   -1.4772    0.0000 C   0  0  0  0  0  0  0  0  0  0  0  0
    3.3086   -2.7762    0.0000 C   0  0  0  0  0  0  0  0  0  0  0  0
    2.1595   -3.7404    0.0000 C   0  0  0  0  0  0  0  0  0  0  0  0
    0.7500   -4.2535    0.0000 C   0  0  0  0  0  0  0  0  0  0  0  0
   -0.7500   -4.2535    0.0000 C   0  0  0  0  0  0  0  0  0  0  0  0
   -2.1595   -3.7404    0.0000 C   0  0  0  0  0  0  0  0  0  0  0  0
   -3.3086   -2.7762    0.0000 C   0  0  0  0  0  0  0  0  0  0  0  0
   -4.0586   -1.4772    0.0000 C   0  0  0  0  0  0  0  0  0  0  0  0
   -4.3191    0.0000    0.0000 C   0  0  0  0  0  0  0  0  0  0  0  0
   -4.0586    1.4772    0.0000 C   0  0  0  0  0  0  0  0  0  0  0  0
   -3.3086    2.7762    0.0000 C   0  0  0  0  0  0  0  0  0  0  0  0
   -2.1595    3.7404    0.0000 C   0  0  0  0  0  0  0  0  0  0  0  0
   -0.7500    4.2535    0.0000 C   0  0  0  0  0  0  0  0  0  0  0  0
    0.7500    4.2535    0.0000 C   0  0  0  0  0  0  0  0  0  0  0  0
    2.1595    3.7404    0.0000 C   0  0  0  0  0  0  0  0  0  0  0  0
    3.3086    2.7762    0.0000 C   0  0  0  0  0  0  0  0  0  0  0  0
    4.0586    1.4772    0.0000 C   0  0  0  0  0  0  0  0  0  0  0  0
  1  2  1  0
  2  3  2  3
  3  4  1  0
  4  5  2  0
  5  6  1  0
  6  7  2  0
  7  8  1  0
  8  9  2  0
  9 10  1  0
 10 11  2  0
 11 12  1  0
 12 13  2  0
 13 14  1  0
 14 15  2  0
 15 16  1  0
 16 17  2  0
 17 18  1  0
 18 19  2  0
 19 20  1  0
 20 21  2  0
 21  4  1  0
M  END
>  <Title>  (917) 
idABJGgen8

$$$$

     RDKit          2D

 16 16  0  0  0  0  0  0  0  0999 V2000
    6.1771   -1.2990    0.0000 C   0  0  0  0  0  0  0  0  0  0  0  0
    4.6771   -1.2990    0.0000 C   0  0  0  0  0  0  0  0  0  0  0  0
    3.9271   -2.5981    0.0000 O   0  0  0  0  0  0  0  0  0  0  0  0
    3.9271    0.0000    0.0000 O   0  0  0  0  0  0  0  0  0  0  0  0
    2.4271    0.0000    0.0000 C   0  0  0  0  0  0  0  0  0  0  0  0
    1.9635   -1.4266    0.0000 C   0  0  0  0  0  0  0  0  0  0  0  0
    0.7500   -2.3083    0.0000 C   0  0  0  0  0  0  0  0  0  0  0  0
   -0.7500   -2.3083    0.0000 C   0  0  0  0  0  0  0  0  0  0  0  0
   -1.9635   -1.4266    0.0000 C   0  0  0  0  0  0  0  0  0  0  0  0
   -2.4271    0.0000    0.0000 C   0  0  0  0  0  0  0  0  0  0  0  0
   -1.9635    1.4266    0.0000 C   0  0  0  0  0  0  0  0  0  0  0  0
   -0.7500    2.3083    0.0000 C   0  0  0  0  0  0  0  0  0  0  0  0
   -1.2135    3.7348    0.0000 O   0  0  0  0  0  0  0  0  0  0  0  0
    0.7500    2.3083    0.0000 C   0  0  0  0  0  0  0  0  0  0  0  0
    1.9635    1.4266    0.0000 C   0  0  0  0  0  0  0  0  0  0  0  0
    3.1771    2.3083    0.0000 C   0  0  0  0  0  0  0  0  0  0  0  0
  1  2  1  0
  2  3  2  0
  2  4  1  0
  4  5  1  0
  5  6  2  0
  6  7  1  0
  7  8  2  0
  8  9  1  0
  9 10  2  0
 10 11  1  0
 11 12  2  0
 12 13  1  0
 12 14  1  0
 14 15  2  0
 15 16  1  0
 15  5  1  0
M  END
>  <Title>  (918) 
idABJHgen8

$$$$

     RDKit          2D

 46 52  0  0  0  0  0  0  0  0999 V2000
    3.0000    0.0000    0.0000 C   0  0  0  0  0  0  0  0  0  0  0  0
    1.5000    0.0000    0.0000 C   0  0  0  0  0  0  0  0  0  0  0  0
    0.7500   -1.2990    0.0000 C   0  0  0  0  0  0  0  0  0  0  0  0
   -0.7500   -1.2990    0.0000 C   0  0  0  0  0  0  0  0  0  0  0  0
   -1.5000    0.0000    0.0000 C   0  0  0  0  0  0  0  0  0  0  0  0
   -3.0000    0.0000    0.0000 C   0  0  0  0  0  0  0  0  0  0  0  0
   -3.8817   -1.2135    0.0000 N   0  0  0  0  0  0  0  0  0  0  0  0
   -5.3083   -0.7500    0.0000 N   0  0  0  0  0  0  0  0  0  0  0  0
   -5.3083    0.7500    0.0000 N   0  0  0  0  0  0  0  0  0  0  0  0
   -3.8817    1.2135    0.0000 N   0  0  0  0  0  0  0  0  0  0  0  0
   -3.4182    2.6401    0.0000 C   0  0  0  0  0  0  0  0  0  0  0  0
   -1.9509    2.9520    0.0000 C   0  0  0  0  0  0  0  0  0  0  0  0
   -1.4874    4.3786    0.0000 C   0  0  0  0  0  0  0  0  0  0  0  0
   -2.4911    5.4933    0.0000 C   0  0  0  0  0  0  0  0  0  0  0  0
   -2.0276    6.9199    0.0000 C   0  0  0  0  0  0  0  0  0  0  0  0
   -2.9093    8.1334    0.0000 N   0  0  0  0  0  0  0  0  0  0  0  0
   -2.0276    9.3469    0.0000 N   0  0  0  0  0  0  0  0  0  0  0  0
   -0.6010    8.8834    0.0000 N   0  0  0  0  0  0  0  0  0  0  0  0
   -0.6010    7.3834    0.0000 N   0  0  0  0  0  0  0  0  0  0  0  0
    0.6125    6.5017    0.0000 C   0  0  0  0  0  0  0  0  0  0  0  0
    0.4557    5.0099    0.0000 C   0  0  0  0  0  0  0  0  0  0  0  0
    1.6693    4.1283    0.0000 C   0  0  0  0  0  0  0  0  0  0  0  0
    3.0396    4.7384    0.0000 C   0  0  0  0  0  0  0  0  0  0  0  0
    4.2531    3.8567    0.0000 C   0  0  0  0  0  0  0  0  0  0  0  0
    4.0963    2.3649    0.0000 O   0  0  0  0  0  0  0  0  0  0  0  0
    5.6234    4.4668    0.0000 N   0  0  0  0  0  0  0  0  0  0  0  0
    6.8370    3.5851    0.0000 O   0  0  0  0  0  0  0  0  0  0  0  0
    3.1964    6.2301    0.0000 C   0  0  0  0  0  0  0  0  0  0  0  0
    1.9829    7.1118    0.0000 C   0  0  0  0  0  0  0  0  0  0  0  0
   -3.9583    5.1814    0.0000 C   0  0  0  0  0  0  0  0  0  0  0  0
   -4.4218    3.7548    0.0000 C   0  0  0  0  0  0  0  0  0  0  0  0
   -5.8891    3.4430    0.0000 C   0  0  0  0  0  0  0  0  0  0  0  0
   -6.4992    2.0726    0.0000 N   0  0  0  0  0  0  0  0  0  0  0  0
   -7.9910    2.2294    0.0000 N   0  0  0  0  0  0  0  0  0  0  0  0
   -8.3028    3.6967    0.0000 N   0  0  0  0  0  0  0  0  0  0  0  0
   -7.0038    4.4467    0.0000 N   0  0  0  0  0  0  0  0  0  0  0  0
   -6.8470    5.9384    0.0000 C   0  0  0  0  0  0  0  0  0  0  0  0
   -7.9617    6.9421    0.0000 C   0  0  0  0  0  0  0  0  0  0  0  0
   -7.3516    8.3125    0.0000 C   0  0  0  0  0  0  0  0  0  0  0  0
   -5.8598    8.1557    0.0000 C   0  0  0  0  0  0  0  0  0  0  0  0
   -4.8561    9.2704    0.0000 C   0  0  0  0  0  0  0  0  0  0  0  0
   -5.5480    6.6884    0.0000 C   0  0  0  0  0  0  0  0  0  0  0  0
   -4.1776    6.0783    0.0000 O   0  0  0  0  0  0  0  0  0  0  0  0
   -0.7500    1.2990    0.0000 N   0  0  0  0  0  0  0  0  0  0  0  0
    0.7500    1.2990    0.0000 C   0  0  0  0  0  0  0  0  0  0  0  0
    1.5000    2.5981    0.0000 O   0  0  0  0  0  0  0  0  0  0  0  0
  1  2  1  0
  2  3  2  0
  3  4  1  0
  4  5  2  0
  5  6  1  0
  6  7  2  0
  7  8  1  0
  8  9  2  0
  9 10  1  0
 10 11  1  0
 11 12  2  0
 12 13  1  0
 13 14  2  0
 14 15  1  0
 15 16  2  0
 16 17  1  0
 17 18  2  0
 18 19  1  0
 19 20  1  0
 20 21  2  0
 21 22  1  0
 22 23  2  0
 23 24  1  0
 24 25  2  0
 24 26  1  0
 26 27  1  0
 23 28  1  0
 28 29  1  0
 14 30  1  0
 30 31  2  0
 31 32  1  0
 32 33  2  0
 33 34  1  0
 34 35  2  0
 35 36  1  0
 36 37  1  0
 37 38  2  0
 38 39  1  0
 39 40  2  0
 40 41  1  0
 40 42  1  0
 42 43  2  0
  5 44  1  0
 44 45  1  0
 45 46  2  0
 45  2  1  0
 10  6  1  0
 31 11  1  0
 36 32  1  0
 42 37  1  0
 19 15  1  0
 29 20  1  0
M  END
>  <Title>  (919) 
idABJIgen8

$$$$

     RDKit          2D

 47 53  0  0  0  0  0  0  0  0999 V2000
    3.0000    0.0000    0.0000 C   0  0  0  0  0  0  0  0  0  0  0  0
    1.5000    0.0000    0.0000 C   0  0  0  0  0  0  0  0  0  0  0  0
    0.7500   -1.2990    0.0000 C   0  0  0  0  0  0  0  0  0  0  0  0
   -0.7500   -1.2990    0.0000 C   0  0  0  0  0  0  0  0  0  0  0  0
   -1.5000    0.0000    0.0000 C   0  0  0  0  0  0  0  0  0  0  0  0
   -3.0000    0.0000    0.0000 C   0  0  0  0  0  0  0  0  0  0  0  0
   -3.8817   -1.2135    0.0000 N   0  0  0  0  0  0  0  0  0  0  0  0
   -5.3083   -0.7500    0.0000 N   0  0  0  0  0  0  0  0  0  0  0  0
   -5.3083    0.7500    0.0000 N   0  0  0  0  0  0  0  0  0  0  0  0
   -3.8817    1.2135    0.0000 N   0  0  0  0  0  0  0  0  0  0  0  0
   -3.4182    2.6401    0.0000 C   0  0  0  0  0  0  0  0  0  0  0  0
   -1.9509    2.9520    0.0000 C   0  0  0  0  0  0  0  0  0  0  0  0
   -1.4874    4.3786    0.0000 C   0  0  0  0  0  0  0  0  0  0  0  0
   -2.4911    5.4933    0.0000 C   0  0  0  0  0  0  0  0  0  0  0  0
   -2.0276    6.9199    0.0000 C   0  0  0  0  0  0  0  0  0  0  0  0
   -3.0313    8.0346    0.0000 O   0  0  0  0  0  0  0  0  0  0  0  0
   -0.5604    7.2317    0.0000 N   0  0  0  0  0  0  0  0  0  0  0  0
   -0.0968    8.6583    0.0000 C   0  0  0  0  0  0  0  0  0  0  0  0
   -0.9785    9.8718    0.0000 N   0  0  0  0  0  0  0  0  0  0  0  0
   -0.0968   11.0854    0.0000 N   0  0  0  0  0  0  0  0  0  0  0  0
    1.3298   10.6218    0.0000 N   0  0  0  0  0  0  0  0  0  0  0  0
    1.3298    9.1218    0.0000 N   0  0  0  0  0  0  0  0  0  0  0  0
    2.5433    8.2402    0.0000 C   0  0  0  0  0  0  0  0  0  0  0  0
    2.3865    6.7484    0.0000 C   0  0  0  0  0  0  0  0  0  0  0  0
    3.6000    5.8667    0.0000 C   0  0  0  0  0  0  0  0  0  0  0  0
    4.9703    6.4768    0.0000 C   0  0  0  0  0  0  0  0  0  0  0  0
    5.1271    7.9686    0.0000 N   0  0  0  0  0  0  0  0  0  0  0  0
    3.9136    8.8503    0.0000 C   0  0  0  0  0  0  0  0  0  0  0  0
    4.0704   10.3421    0.0000 N   0  0  0  0  0  0  0  0  0  0  0  0
    2.9557   11.3457    0.0000 C   0  0  0  0  0  0  0  0  0  0  0  0
    3.5658   12.7161    0.0000 C   0  0  0  0  0  0  0  0  0  0  0  0
    5.0576   12.5593    0.0000 C   0  0  0  0  0  0  0  0  0  0  0  0
    5.3694   11.0921    0.0000 C   0  0  0  0  0  0  0  0  0  0  0  0
   -3.9583    5.1814    0.0000 C   0  0  0  0  0  0  0  0  0  0  0  0
   -4.4218    3.7548    0.0000 C   0  0  0  0  0  0  0  0  0  0  0  0
   -5.8891    3.4430    0.0000 C   0  0  0  0  0  0  0  0  0  0  0  0
   -6.8928    4.5577    0.0000 C   0  0  0  0  0  0  0  0  0  0  0  0
   -8.3600    4.2458    0.0000 C   0  0  0  0  0  0  0  0  0  0  0  0
   -8.8235    2.8192    0.0000 C   0  0  0  0  0  0  0  0  0  0  0  0
  -10.2907    2.5074    0.0000 C   0  0  0  0  0  0  0  0  0  0  0  0
  -10.7543    1.0808    0.0000 O   0  0  0  0  0  0  0  0  0  0  0  0
  -11.2944    3.6221    0.0000 N   0  0  0  0  0  0  0  0  0  0  0  0
  -12.7617    3.3102    0.0000 O   0  0  0  0  0  0  0  0  0  0  0  0
   -7.8198    1.7045    0.0000 C   0  0  0  0  0  0  0  0  0  0  0  0
   -6.3526    2.0164    0.0000 C   0  0  0  0  0  0  0  0  0  0  0  0
   -0.7500    1.2990    0.0000 C   0  0  0  0  0  0  0  0  0  0  0  0
    0.7500    1.2990    0.0000 C   0  0  0  0  0  0  0  0  0  0  0  0
  1  2  1  0
  2  3  2  0
  3  4  1  0
  4  5  2  0
  5  6  1  0
  6  7  2  0
  7  8  1  0
  8  9  2  0
  9 10  1  0
 10 11  1  0
 11 12  2  0
 12 13  1  0
 13 14  2  0
 14 15  1  0
 15 16  2  0
 15 17  1  0
 17 18  1  0
 18 19  2  0
 19 20  1  0
 20 21  2  0
 21 22  1  0
 22 23  1  0
 23 24  2  0
 24 25  1  0
 25 26  2  0
 26 27  1  0
 27 28  2  0
 28 29  1  0
 29 30  1  0
 30 31  2  0
 31 32  1  0
 32 33  2  0
 14 34  1  0
 34 35  2  0
 35 36  1  0
 36 37  2  0
 37 38  1  0
 38 39  2  0
 39 40  1  0
 40 41  2  0
 40 42  1  0
 42 43  1  0
 39 44  1  0
 44 45  1  0
  5 46  1  0
 46 47  2  0
 47  2  1  0
 10  6  1  0
 35 11  1  0
 45 36  1  0
 22 18  1  0
 28 23  1  0
 33 29  1  0
M  END
>  <Title>  (920) 
idABJJgen8

$$$$

     RDKit          2D

 24 27  0  0  0  0  0  0  0  0999 V2000
    3.0000    0.0000    0.0000 O   0  0  0  0  0  0  0  0  0  0  0  0
    1.5000    0.0000    0.0000 C   0  0  0  0  0  0  0  0  0  0  0  0
    0.7500   -1.2990    0.0000 C   0  0  0  0  0  0  0  0  0  0  0  0
   -0.7500   -1.2990    0.0000 C   0  0  0  0  0  0  0  0  0  0  0  0
   -1.5000    0.0000    0.0000 C   0  0  0  0  0  0  0  0  0  0  0  0
   -3.0000    0.0000    0.0000 C   0  0  0  0  0  0  0  0  0  0  0  0
   -3.8817   -1.2135    0.0000 N   0  0  0  0  0  0  0  0  0  0  0  0
   -5.3083   -0.7500    0.0000 N   0  0  0  0  0  0  0  0  0  0  0  0
   -5.3083    0.7500    0.0000 N   0  0  0  0  0  0  0  0  0  0  0  0
   -3.8817    1.2135    0.0000 N   0  0  0  0  0  0  0  0  0  0  0  0
   -3.4182    2.6401    0.0000 C   0  0  0  0  0  0  0  0  0  0  0  0
   -1.9509    2.9520    0.0000 C   0  0  0  0  0  0  0  0  0  0  0  0
   -1.4874    4.3786    0.0000 C   0  0  0  0  0  0  0  0  0  0  0  0
   -2.4911    5.4933    0.0000 C   0  0  0  0  0  0  0  0  0  0  0  0
   -3.9583    5.1814    0.0000 C   0  0  0  0  0  0  0  0  0  0  0  0
   -4.4218    3.7548    0.0000 C   0  0  0  0  0  0  0  0  0  0  0  0
   -5.8891    3.4430    0.0000 N   0  0  0  0  0  0  0  0  0  0  0  0
   -6.8928    4.5577    0.0000 N   0  0  0  0  0  0  0  0  0  0  0  0
   -8.3600    4.2458    0.0000 N   0  0  0  0  0  0  0  0  0  0  0  0
   -8.8235    2.8192    0.0000 N   0  0  0  0  0  0  0  0  0  0  0  0
   -7.8198    1.7045    0.0000 N   0  0  0  0  0  0  0  0  0  0  0  0
   -6.3526    2.0164    0.0000 O   0  0  0  0  0  0  0  0  0  0  0  0
   -0.7500    1.2990    0.0000 C   0  0  0  0  0  0  0  0  0  0  0  0
    0.7500    1.2990    0.0000 C   0  0  0  0  0  0  0  0  0  0  0  0
  1  2  1  0
  2  3  2  0
  3  4  1  0
  4  5  2  0
  5  6  1  0
  6  7  2  0
  7  8  1  0
  8  9  2  0
  9 10  1  0
 10 11  1  0
 11 12  2  0
 12 13  1  0
 13 14  2  0
 14 15  1  0
 15 16  2  0
 16 17  1  0
 17 18  1  0
 18 19  2  0
 19 20  1  0
 20 21  2  0
 21 22  1  0
  5 23  1  0
 23 24  2  0
 24  2  1  0
 10  6  1  0
 16 11  1  0
 22 17  1  0
M  END
>  <Title>  (921) 
idABJKgen8

$$$$

     RDKit          2D

 24 26  0  0  0  0  0  0  0  0999 V2000
    3.7500   -1.2990    0.0000 C   0  0  0  0  0  0  0  0  0  0  0  0
    3.0000    0.0000    0.0000 O   0  0  0  0  0  0  0  0  0  0  0  0
    1.5000    0.0000    0.0000 C   0  0  0  0  0  0  0  0  0  0  0  0
    0.7500   -1.2990    0.0000 C   0  0  0  0  0  0  0  0  0  0  0  0
   -0.7500   -1.2990    0.0000 C   0  0  0  0  0  0  0  0  0  0  0  0
   -1.5000    0.0000    0.0000 C   0  0  0  0  0  0  0  0  0  0  0  0
   -3.0000    0.0000    0.0000 C   0  0  0  0  0  0  0  0  0  0  0  0
   -3.7500   -1.2990    0.0000 O   0  0  0  0  0  0  0  0  0  0  0  0
   -3.7500    1.2990    0.0000 N   0  0  0  0  0  0  0  0  0  0  0  0
   -5.2500    1.2990    0.0000 C   0  0  0  0  0  0  0  0  0  0  0  0
   -6.1317    0.0855    0.0000 N   0  0  0  0  0  0  0  0  0  0  0  0
   -7.5583    0.5490    0.0000 N   0  0  0  0  0  0  0  0  0  0  0  0
   -7.5583    2.0490    0.0000 N   0  0  0  0  0  0  0  0  0  0  0  0
   -6.1317    2.5126    0.0000 N   0  0  0  0  0  0  0  0  0  0  0  0
   -5.6682    3.9391    0.0000 C   0  0  0  0  0  0  0  0  0  0  0  0
   -4.2009    4.2510    0.0000 C   0  0  0  0  0  0  0  0  0  0  0  0
   -3.7374    5.6776    0.0000 C   0  0  0  0  0  0  0  0  0  0  0  0
   -4.7411    6.7923    0.0000 C   0  0  0  0  0  0  0  0  0  0  0  0
   -4.2776    8.2189    0.0000 C   0  0  0  0  0  0  0  0  0  0  0  0
   -6.2083    6.4805    0.0000 C   0  0  0  0  0  0  0  0  0  0  0  0
   -6.6718    5.0539    0.0000 C   0  0  0  0  0  0  0  0  0  0  0  0
   -0.7500    1.2990    0.0000 C   0  0  0  0  0  0  0  0  0  0  0  0
   -1.5000    2.5981    0.0000 O   0  0  0  0  0  0  0  0  0  0  0  0
    0.7500    1.2990    0.0000 N   0  0  0  0  0  0  0  0  0  0  0  0
  1  2  1  0
  2  3  1  0
  3  4  2  0
  4  5  1  0
  5  6  2  0
  6  7  1  0
  7  8  2  0
  7  9  1  0
  9 10  1  0
 10 11  2  0
 11 12  1  0
 12 13  2  0
 13 14  1  0
 14 15  1  0
 15 16  2  0
 16 17  1  0
 17 18  2  0
 18 19  1  0
 18 20  1  0
 20 21  1  0
  6 22  1  0
 22 23  2  0
 22 24  1  0
 24  3  1  0
 14 10  1  0
 21 15  1  0
M  END
>  <Title>  (922) 
idABJLgen8

$$$$

     RDKit          2D

 29 31  0  0  0  0  0  0  0  0999 V2000
    5.2500   -1.2990    0.0000 C   0  0  0  0  0  0  0  0  0  0  0  0
    3.7500   -1.2990    0.0000 C   0  0  0  0  0  0  0  0  0  0  0  0
    3.0000   -2.5981    0.0000 O   0  0  0  0  0  0  0  0  0  0  0  0
    3.0000    0.0000    0.0000 O   0  0  0  0  0  0  0  0  0  0  0  0
    1.5000    0.0000    0.0000 C   0  0  0  0  0  0  0  0  0  0  0  0
    0.7500   -1.2990    0.0000 C   0  0  0  0  0  0  0  0  0  0  0  0
   -0.7500   -1.2990    0.0000 C   0  0  0  0  0  0  0  0  0  0  0  0
   -1.5000    0.0000    0.0000 C   0  0  0  0  0  0  0  0  0  0  0  0
   -3.0000    0.0000    0.0000 C   0  0  0  0  0  0  0  0  0  0  0  0
   -3.7500   -1.2990    0.0000 O   0  0  0  0  0  0  0  0  0  0  0  0
   -3.7500    1.2990    0.0000 N   0  0  0  0  0  0  0  0  0  0  0  0
   -5.2500    1.2990    0.0000 C   0  0  0  0  0  0  0  0  0  0  0  0
   -6.1317    0.0855    0.0000 N   0  0  0  0  0  0  0  0  0  0  0  0
   -7.5583    0.5490    0.0000 N   0  0  0  0  0  0  0  0  0  0  0  0
   -7.5583    2.0490    0.0000 N   0  0  0  0  0  0  0  0  0  0  0  0
   -6.1317    2.5126    0.0000 N   0  0  0  0  0  0  0  0  0  0  0  0
   -5.6682    3.9391    0.0000 C   0  0  0  0  0  0  0  0  0  0  0  0
   -4.2009    4.2510    0.0000 C   0  0  0  0  0  0  0  0  0  0  0  0
   -3.7374    5.6776    0.0000 C   0  0  0  0  0  0  0  0  0  0  0  0
   -4.7411    6.7923    0.0000 C   0  0  0  0  0  0  0  0  0  0  0  0
   -4.2776    8.2189    0.0000 C   0  0  0  0  0  0  0  0  0  0  0  0
   -5.2813    9.3336    0.0000 O   0  0  0  0  0  0  0  0  0  0  0  0
   -2.8104    8.5308    0.0000 N   0  0  0  0  0  0  0  0  0  0  0  0
   -2.3468    9.9574    0.0000 O   0  0  0  0  0  0  0  0  0  0  0  0
   -6.2083    6.4805    0.0000 C   0  0  0  0  0  0  0  0  0  0  0  0
   -6.6718    5.0539    0.0000 C   0  0  0  0  0  0  0  0  0  0  0  0
   -0.7500    1.2990    0.0000 C   0  0  0  0  0  0  0  0  0  0  0  0
   -1.5000    2.5981    0.0000 O   0  0  0  0  0  0  0  0  0  0  0  0
    0.7500    1.2990    0.0000 N   0  0  0  0  0  0  0  0  0  0  0  0
  1  2  1  0
  2  3  2  0
  2  4  1  0
  4  5  1  0
  5  6  2  0
  6  7  1  0
  7  8  2  0
  8  9  1  0
  9 10  2  0
  9 11  1  0
 11 12  1  0
 12 13  2  0
 13 14  1  0
 14 15  2  0
 15 16  1  0
 16 17  1  0
 17 18  2  0
 18 19  1  0
 19 20  2  0
 20 21  1  0
 21 22  2  0
 21 23  1  0
 23 24  1  0
 20 25  1  0
 25 26  1  0
  8 27  1  0
 27 28  2  0
 27 29  1  0
 29  5  1  0
 16 12  1  0
 26 17  1  0
M  END
>  <Title>  (923) 
idABJMgen8

$$$$

     RDKit          2D

  8  8  0  0  0  0  0  0  0  0999 V2000
    3.0000    0.0000    0.0000 N   0  0  0  0  0  0  0  0  0  0  0  0
    1.5000    0.0000    0.0000 C   0  0  0  0  0  0  0  0  0  0  0  0
    0.7500   -1.2990    0.0000 C   0  0  0  0  0  0  0  0  0  0  0  0
   -0.7500   -1.2990    0.0000 C   0  0  0  0  0  0  0  0  0  0  0  0
   -1.5000    0.0000    0.0000 C   0  0  0  0  0  0  0  0  0  0  0  0
   -0.7500    1.2990    0.0000 C   0  0  0  0  0  0  0  0  0  0  0  0
    0.7500    1.2990    0.0000 C   0  0  0  0  0  0  0  0  0  0  0  0
    1.5000    2.5981    0.0000 O   0  0  0  0  0  0  0  0  0  0  0  0
  1  2  1  0
  2  3  2  0
  3  4  1  0
  4  5  2  0
  5  6  1  0
  6  7  2  0
  7  8  1  0
  7  2  1  0
M  END
>  <Title>  (924) 
idABJNgen8

$$$$

     RDKit          2D

 44 50  0  0  0  0  0  0  0  0999 V2000
    3.0000    0.0000    0.0000 C   0  0  0  0  0  0  0  0  0  0  0  0
    1.5000    0.0000    0.0000 C   0  0  0  0  0  0  0  0  0  0  0  0
    0.7500   -1.2990    0.0000 C   0  0  0  0  0  0  0  0  0  0  0  0
   -0.7500   -1.2990    0.0000 C   0  0  0  0  0  0  0  0  0  0  0  0
   -1.5000    0.0000    0.0000 C   0  0  0  0  0  0  0  0  0  0  0  0
   -3.0000    0.0000    0.0000 C   0  0  0  0  0  0  0  0  0  0  0  0
   -3.8817   -1.2135    0.0000 N   0  0  0  0  0  0  0  0  0  0  0  0
   -5.3083   -0.7500    0.0000 N   0  0  0  0  0  0  0  0  0  0  0  0
   -5.3083    0.7500    0.0000 N   0  0  0  0  0  0  0  0  0  0  0  0
   -3.8817    1.2135    0.0000 N   0  0  0  0  0  0  0  0  0  0  0  0
   -3.4182    2.6401    0.0000 C   0  0  0  0  0  0  0  0  0  0  0  0
   -1.9509    2.9520    0.0000 C   0  0  0  0  0  0  0  0  0  0  0  0
   -1.4874    4.3786    0.0000 C   0  0  0  0  0  0  0  0  0  0  0  0
   -2.4911    5.4933    0.0000 C   0  0  0  0  0  0  0  0  0  0  0  0
   -3.9583    5.1814    0.0000 C   0  0  0  0  0  0  0  0  0  0  0  0
   -4.4218    3.7548    0.0000 C   0  0  0  0  0  0  0  0  0  0  0  0
   -5.8891    3.4430    0.0000 C   0  0  0  0  0  0  0  0  0  0  0  0
   -6.8928    4.5577    0.0000 C   0  0  0  0  0  0  0  0  0  0  0  0
   -8.3600    4.2458    0.0000 C   0  0  0  0  0  0  0  0  0  0  0  0
   -8.8235    2.8192    0.0000 C   0  0  0  0  0  0  0  0  0  0  0  0
  -10.2907    2.5074    0.0000 C   0  0  0  0  0  0  0  0  0  0  0  0
  -10.7543    1.0808    0.0000 O   0  0  0  0  0  0  0  0  0  0  0  0
  -11.2944    3.6221    0.0000 N   0  0  0  0  0  0  0  0  0  0  0  0
  -12.7617    3.3102    0.0000 C   0  0  0  0  0  0  0  0  0  0  0  0
  -13.3718    1.9399    0.0000 N   0  0  0  0  0  0  0  0  0  0  0  0
  -14.8635    2.0967    0.0000 N   0  0  0  0  0  0  0  0  0  0  0  0
  -15.1754    3.5639    0.0000 N   0  0  0  0  0  0  0  0  0  0  0  0
  -13.8764    4.3139    0.0000 N   0  0  0  0  0  0  0  0  0  0  0  0
  -13.7196    5.8057    0.0000 C   0  0  0  0  0  0  0  0  0  0  0  0
  -12.3493    6.4158    0.0000 C   0  0  0  0  0  0  0  0  0  0  0  0
  -12.1925    7.9076    0.0000 C   0  0  0  0  0  0  0  0  0  0  0  0
  -13.4060    8.7893    0.0000 N   0  0  0  0  0  0  0  0  0  0  0  0
  -14.7763    8.1791    0.0000 N   0  0  0  0  0  0  0  0  0  0  0  0
  -14.9331    6.6874    0.0000 C   0  0  0  0  0  0  0  0  0  0  0  0
  -16.3034    6.0773    0.0000 C   0  0  0  0  0  0  0  0  0  0  0  0
  -17.5169    6.9589    0.0000 C   0  0  0  0  0  0  0  0  0  0  0  0
  -18.8873    6.3488    0.0000 C   0  0  0  0  0  0  0  0  0  0  0  0
  -19.0441    4.8570    0.0000 C   0  0  0  0  0  0  0  0  0  0  0  0
  -17.8305    3.9754    0.0000 C   0  0  0  0  0  0  0  0  0  0  0  0
  -16.4602    4.5855    0.0000 C   0  0  0  0  0  0  0  0  0  0  0  0
   -7.8198    1.7045    0.0000 C   0  0  0  0  0  0  0  0  0  0  0  0
   -6.3526    2.0164    0.0000 C   0  0  0  0  0  0  0  0  0  0  0  0
   -0.7500    1.2990    0.0000 C   0  0  0  0  0  0  0  0  0  0  0  0
    0.7500    1.2990    0.0000 C   0  0  0  0  0  0  0  0  0  0  0  0
  1  2  1  0
  2  3  2  0
  3  4  1  0
  4  5  2  0
  5  6  1  0
  6  7  2  0
  7  8  1  0
  8  9  2  0
  9 10  1  0
 10 11  1  0
 11 12  2  0
 12 13  1  0
 13 14  2  0
 14 15  1  0
 15 16  2  0
 16 17  1  0
 17 18  2  0
 18 19  1  0
 19 20  2  0
 20 21  1  0
 21 22  2  0
 21 23  1  0
 23 24  1  0
 24 25  2  0
 25 26  1  0
 26 27  2  0
 27 28  1  0
 28 29  1  0
 29 30  2  0
 30 31  1  0
 31 32  2  0
 32 33  1  0
 33 34  2  0
 34 35  1  0
 35 36  2  0
 36 37  1  0
 37 38  2  0
 38 39  1  0
 39 40  2  0
 20 41  1  0
 41 42  2  0
  5 43  1  0
 43 44  2  0
 44  2  1  0
 10  6  1  0
 16 11  1  0
 42 17  1  0
 28 24  1  0
 34 29  1  0
 40 35  1  0
M  END
>  <Title>  (925) 
idABJOgen8

$$$$

     RDKit          2D

 20 21  0  0  0  0  0  0  0  0999 V2000
    4.2098   -1.2990    0.0000 C   0  0  0  0  0  0  0  0  0  0  0  0
    3.4598   -0.0000    0.0000 O   0  0  0  0  0  0  0  0  0  0  0  0
    1.9598    0.0000    0.0000 C   0  0  0  0  0  0  0  0  0  0  0  0
    1.3858   -1.3858    0.0000 C   0  0  0  0  0  0  0  0  0  0  0  0
   -0.0000   -1.9598    0.0000 C   0  0  0  0  0  0  0  0  0  0  0  0
   -1.3858   -1.3858    0.0000 C   0  0  0  0  0  0  0  0  0  0  0  0
   -1.9598    0.0000    0.0000 C   0  0  0  0  0  0  0  0  0  0  0  0
   -1.3858    1.3858    0.0000 C   0  0  0  0  0  0  0  0  0  0  0  0
   -2.4465    2.4465    0.0000 F   0  0  0  0  0  0  0  0  0  0  0  0
    0.0000    1.9598    0.0000 C   0  0  0  0  0  0  0  0  0  0  0  0
    1.3858    1.3858    0.0000 C   0  0  0  0  0  0  0  0  0  0  0  0
    2.4465    2.4465    0.0000 N   0  0  0  0  0  0  0  0  0  0  0  0
    3.8954    2.0583    0.0000 C   0  0  0  0  0  0  0  0  0  0  0  0
    4.2836    0.6094    0.0000 O   0  0  0  0  0  0  0  0  0  0  0  0
    4.9560    3.1189    0.0000 C   0  0  0  0  0  0  0  0  0  0  0  0
    6.4049    2.7307    0.0000 C   0  0  0  0  0  0  0  0  0  0  0  0
    7.4656    3.7913    0.0000 C   0  0  0  0  0  0  0  0  0  0  0  0
    7.0773    5.2402    0.0000 C   0  0  0  0  0  0  0  0  0  0  0  0
    5.6285    5.6285    0.0000 C   0  0  0  0  0  0  0  0  0  0  0  0
    4.5678    4.5678    0.0000 C   0  0  0  0  0  0  0  0  0  0  0  0
  1  2  1  0
  2  3  1  0
  3  4  2  0
  4  5  1  0
  5  6  2  0
  6  7  1  0
  7  8  2  0
  8  9  1  0
  8 10  1  0
 10 11  2  0
 11 12  1  0
 12 13  1  0
 13 14  2  0
 13 15  1  0
 15 16  2  0
 16 17  1  0
 17 18  2  0
 18 19  1  0
 19 20  2  0
 11  3  1  0
 20 15  1  0
M  END
>  <Title>  (926) 
idABJPgen8

$$$$

     RDKit          2D

 40 45  0  0  0  0  0  0  0  0999 V2000
    3.7500   -1.2990    0.0000 C   0  0  0  0  0  0  0  0  0  0  0  0
    3.0000    0.0000    0.0000 O   0  0  0  0  0  0  0  0  0  0  0  0
    1.5000    0.0000    0.0000 C   0  0  0  0  0  0  0  0  0  0  0  0
    0.7500   -1.2990    0.0000 C   0  0  0  0  0  0  0  0  0  0  0  0
   -0.7500   -1.2990    0.0000 C   0  0  0  0  0  0  0  0  0  0  0  0
   -1.5000    0.0000    0.0000 C   0  0  0  0  0  0  0  0  0  0  0  0
   -3.0000    0.0000    0.0000 N   0  0  0  0  0  0  0  0  0  0  0  0
   -3.8817   -1.2135    0.0000 N   0  0  0  0  0  0  0  0  0  0  0  0
   -5.3083   -0.7500    0.0000 N   0  0  0  0  0  0  0  0  0  0  0  0
   -5.3083    0.7500    0.0000 N   0  0  0  0  0  0  0  0  0  0  0  0
   -3.8817    1.2135    0.0000 C   0  0  0  0  0  0  0  0  0  0  0  0
   -3.4182    2.6401    0.0000 N   0  0  0  0  0  0  0  0  0  0  0  0
   -4.4218    3.7548    0.0000 C   0  0  0  0  0  0  0  0  0  0  0  0
   -5.9136    3.5980    0.0000 N   0  0  0  0  0  0  0  0  0  0  0  0
   -6.5237    4.9684    0.0000 N   0  0  0  0  0  0  0  0  0  0  0  0
   -5.4090    5.9720    0.0000 N   0  0  0  0  0  0  0  0  0  0  0  0
   -4.1100    5.2220    0.0000 N   0  0  0  0  0  0  0  0  0  0  0  0
   -2.7397    5.8322    0.0000 C   0  0  0  0  0  0  0  0  0  0  0  0
   -2.4278    7.2994    0.0000 C   0  0  0  0  0  0  0  0  0  0  0  0
   -0.9360    7.4562    0.0000 C   0  0  0  0  0  0  0  0  0  0  0  0
   -0.3259    6.0858    0.0000 N   0  0  0  0  0  0  0  0  0  0  0  0
    1.1413    5.7740    0.0000 C   0  0  0  0  0  0  0  0  0  0  0  0
    1.8455    7.0984    0.0000 O   0  0  0  0  0  0  0  0  0  0  0  0
    1.6048    4.3474    0.0000 N   0  0  0  0  0  0  0  0  0  0  0  0
    3.0721    4.0355    0.0000 C   0  0  0  0  0  0  0  0  0  0  0  0
    3.6822    2.6652    0.0000 N   0  0  0  0  0  0  0  0  0  0  0  0
    5.1739    2.8220    0.0000 N   0  0  0  0  0  0  0  0  0  0  0  0
    5.4858    4.2892    0.0000 N   0  0  0  0  0  0  0  0  0  0  0  0
    4.1868    5.0392    0.0000 N   0  0  0  0  0  0  0  0  0  0  0  0
    4.0300    6.5310    0.0000 C   0  0  0  0  0  0  0  0  0  0  0  0
    5.2435    7.4127    0.0000 C   0  0  0  0  0  0  0  0  0  0  0  0
    5.0867    8.9045    0.0000 C   0  0  0  0  0  0  0  0  0  0  0  0
    3.7164    9.5146    0.0000 C   0  0  0  0  0  0  0  0  0  0  0  0
    2.5029    8.6329    0.0000 C   0  0  0  0  0  0  0  0  0  0  0  0
    2.6597    7.1411    0.0000 C   0  0  0  0  0  0  0  0  0  0  0  0
   -1.4406    5.0822    0.0000 C   0  0  0  0  0  0  0  0  0  0  0  0
   -1.2838    3.5904    0.0000 O   0  0  0  0  0  0  0  0  0  0  0  0
   -0.7500    1.2990    0.0000 C   0  0  0  0  0  0  0  0  0  0  0  0
   -1.5000    2.5981    0.0000 O   0  0  0  0  0  0  0  0  0  0  0  0
    0.7500    1.2990    0.0000 N   0  0  0  0  0  0  0  0  0  0  0  0
  1  2  1  0
  2  3  1  0
  3  4  2  0
  4  5  1  0
  5  6  2  0
  6  7  1  0
  7  8  1  0
  8  9  2  0
  9 10  1  0
 10 11  2  0
 11 12  1  0
 12 13  1  0
 13 14  2  0
 14 15  1  0
 15 16  2  0
 16 17  1  0
 17 18  1  0
 18 19  1  0
 19 20  1  0
 20 21  1  0
 21 22  1  0
 22 23  2  0
 22 24  1  0
 24 25  1  0
 25 26  2  0
 26 27  1  0
 27 28  2  0
 28 29  1  0
 29 30  1  0
 30 31  2  0
 31 32  1  0
 32 33  2  0
 33 34  1  0
 34 35  2  0
 21 36  1  0
 36 37  1  0
  6 38  1  0
 38 39  2  0
 38 40  1  0
 40  3  1  0
 11  7  1  0
 17 13  1  0
 36 18  1  0
 29 25  1  0
 35 30  1  0
M  END
>  <Title>  (927) 
idABJQgen8

$$$$

     RDKit          2D

 55 62  0  0  0  0  0  0  0  0999 V2000
  -10.1624    4.2767    0.0000 C   0  0  0  0  0  0  0  0  0  0  0  0
   -8.9488    3.3950    0.0000 C   0  0  0  0  0  0  0  0  0  0  0  0
   -9.1056    1.9033    0.0000 C   0  0  0  0  0  0  0  0  0  0  0  0
   -7.8921    1.0216    0.0000 C   0  0  0  0  0  0  0  0  0  0  0  0
   -6.5218    1.6317    0.0000 C   0  0  0  0  0  0  0  0  0  0  0  0
   -5.3083    0.7500    0.0000 C   0  0  0  0  0  0  0  0  0  0  0  0
   -5.3083   -0.7500    0.0000 N   0  0  0  0  0  0  0  0  0  0  0  0
   -3.8817   -1.2135    0.0000 N   0  0  0  0  0  0  0  0  0  0  0  0
   -3.0000    0.0000    0.0000 N   0  0  0  0  0  0  0  0  0  0  0  0
   -3.8817    1.2135    0.0000 N   0  0  0  0  0  0  0  0  0  0  0  0
   -3.4182    2.6401    0.0000 C   0  0  0  0  0  0  0  0  0  0  0  0
   -4.2998    3.8536    0.0000 N   0  0  0  0  0  0  0  0  0  0  0  0
   -3.4182    5.0672    0.0000 N   0  0  0  0  0  0  0  0  0  0  0  0
   -1.9916    4.6036    0.0000 N   0  0  0  0  0  0  0  0  0  0  0  0
   -1.9916    3.1036    0.0000 N   0  0  0  0  0  0  0  0  0  0  0  0
   -0.7780    2.2220    0.0000 C   0  0  0  0  0  0  0  0  0  0  0  0
   -0.9348    0.7302    0.0000 C   0  0  0  0  0  0  0  0  0  0  0  0
    0.2787   -0.1515    0.0000 C   0  0  0  0  0  0  0  0  0  0  0  0
    1.6490    0.4586    0.0000 C   0  0  0  0  0  0  0  0  0  0  0  0
    2.8625   -0.4231    0.0000 C   0  0  0  0  0  0  0  0  0  0  0  0
    2.7057   -1.9149    0.0000 O   0  0  0  0  0  0  0  0  0  0  0  0
    4.2329    0.1870    0.0000 N   0  0  0  0  0  0  0  0  0  0  0  0
    5.4464   -0.6946    0.0000 C   0  0  0  0  0  0  0  0  0  0  0  0
    5.4464   -2.1946    0.0000 N   0  0  0  0  0  0  0  0  0  0  0  0
    6.8730   -2.6582    0.0000 N   0  0  0  0  0  0  0  0  0  0  0  0
    7.7546   -1.4446    0.0000 N   0  0  0  0  0  0  0  0  0  0  0  0
    6.8730   -0.2311    0.0000 N   0  0  0  0  0  0  0  0  0  0  0  0
    7.3365    1.1955    0.0000 C   0  0  0  0  0  0  0  0  0  0  0  0
    6.3328    2.3102    0.0000 C   0  0  0  0  0  0  0  0  0  0  0  0
    6.7963    3.7368    0.0000 C   0  0  0  0  0  0  0  0  0  0  0  0
    8.2635    4.0486    0.0000 C   0  0  0  0  0  0  0  0  0  0  0  0
    8.7271    5.4752    0.0000 C   0  0  0  0  0  0  0  0  0  0  0  0
    7.7234    6.5899    0.0000 C   0  0  0  0  0  0  0  0  0  0  0  0
    8.1869    8.0165    0.0000 C   0  0  0  0  0  0  0  0  0  0  0  0
    9.6541    8.3284    0.0000 C   0  0  0  0  0  0  0  0  0  0  0  0
   10.6578    7.2137    0.0000 C   0  0  0  0  0  0  0  0  0  0  0  0
   10.1943    5.7871    0.0000 C   0  0  0  0  0  0  0  0  0  0  0  0
    9.2672    2.9339    0.0000 C   0  0  0  0  0  0  0  0  0  0  0  0
    8.8037    1.5073    0.0000 C   0  0  0  0  0  0  0  0  0  0  0  0
    1.8058    1.9504    0.0000 C   0  0  0  0  0  0  0  0  0  0  0  0
    0.5923    2.8321    0.0000 C   0  0  0  0  0  0  0  0  0  0  0  0
    0.7491    4.3238    0.0000 C   0  0  0  0  0  0  0  0  0  0  0  0
   -0.4645    5.2055    0.0000 C   0  0  0  0  0  0  0  0  0  0  0  0
   -0.3077    6.6973    0.0000 C   0  0  0  0  0  0  0  0  0  0  0  0
    1.0627    7.3074    0.0000 C   0  0  0  0  0  0  0  0  0  0  0  0
    1.2194    8.7992    0.0000 C   0  0  0  0  0  0  0  0  0  0  0  0
    2.5898    9.4093    0.0000 O   0  0  0  0  0  0  0  0  0  0  0  0
    0.0059    9.6809    0.0000 N   0  0  0  0  0  0  0  0  0  0  0  0
    0.1627   11.1727    0.0000 O   0  0  0  0  0  0  0  0  0  0  0  0
    2.2762    6.4257    0.0000 N   0  0  0  0  0  0  0  0  0  0  0  0
    2.1194    4.9340    0.0000 C   0  0  0  0  0  0  0  0  0  0  0  0
    3.3329    4.0523    0.0000 O   0  0  0  0  0  0  0  0  0  0  0  0
   -6.3650    3.1235    0.0000 N   0  0  0  0  0  0  0  0  0  0  0  0
   -7.5785    4.0051    0.0000 C   0  0  0  0  0  0  0  0  0  0  0  0
   -7.4217    5.4969    0.0000 O   0  0  0  0  0  0  0  0  0  0  0  0
  1  2  1  0
  2  3  2  0
  3  4  1  0
  4  5  2  0
  5  6  1  0
  6  7  2  0
  7  8  1  0
  8  9  2  0
  9 10  1  0
 10 11  1  0
 11 12  2  0
 12 13  1  0
 13 14  2  0
 14 15  1  0
 15 16  1  0
 16 17  2  0
 17 18  1  0
 18 19  2  0
 19 20  1  0
 20 21  2  0
 20 22  1  0
 22 23  1  0
 23 24  2  0
 24 25  1  0
 25 26  2  0
 26 27  1  0
 27 28  1  0
 28 29  2  0
 29 30  1  0
 30 31  2  0
 31 32  1  0
 32 33  2  0
 33 34  1  0
 34 35  2  0
 35 36  1  0
 36 37  2  0
 31 38  1  0
 38 39  2  0
 19 40  1  0
 40 41  2  0
 41 42  1  0
 42 43  2  0
 43 44  1  0
 44 45  2  0
 45 46  1  0
 46 47  2  0
 46 48  1  0
 48 49  1  0
 45 50  1  0
 50 51  1  0
 51 52  2  0
  5 53  1  0
 53 54  1  0
 54 55  2  0
 54  2  1  0
 10  6  1  0
 15 11  1  0
 41 16  1  0
 51 42  1  0
 27 23  1  0
 39 28  1  0
 37 32  1  0
M  END
>  <Title>  (928) 
idABJRgen8

$$$$

     RDKit          2D

 14 15  0  0  0  0  0  0  0  0999 V2000
   -2.0969    6.4536    0.0000 C   0  0  0  0  0  0  0  0  0  0  0  0
   -1.6334    5.0270    0.0000 C   0  0  0  0  0  0  0  0  0  0  0  0
   -0.1343    4.9747    0.0000 C   0  0  0  0  0  0  0  0  0  0  0  0
    0.9804    3.9710    0.0000 C   0  0  0  0  0  0  0  0  0  0  0  0
    1.1892    2.4856    0.0000 C   0  0  0  0  0  0  0  0  0  0  0  0
    0.3943    1.2135    0.0000 C   0  0  0  0  0  0  0  0  0  0  0  0
    1.2760    0.0000    0.0000 C   0  0  0  0  0  0  0  0  0  0  0  0
    0.3943   -1.2135    0.0000 C   0  0  0  0  0  0  0  0  0  0  0  0
   -1.0323   -0.7500    0.0000 C   0  0  0  0  0  0  0  0  0  0  0  0
   -1.0323    0.7500    0.0000 C   0  0  0  0  0  0  0  0  0  0  0  0
   -2.4231    1.3119    0.0000 N   0  0  0  0  0  0  0  0  0  0  0  0
   -3.1273    2.6363    0.0000 C   0  0  0  0  0  0  0  0  0  0  0  0
   -4.6127    2.4276    0.0000 O   0  0  0  0  0  0  0  0  0  0  0  0
   -2.8154    4.1036    0.0000 C   0  0  0  0  0  0  0  0  0  0  0  0
  1  2  1  0
  2  3  2  0
  3  4  1  0
  4  5  2  0
  5  6  2  0
  6  7  1  0
  7  8  2  0
  8  9  1  0
  9 10  2  0
 10 11  1  0
 11 12  1  0
 12 13  2  0
 12 14  1  0
 14  2  1  0
 10  6  1  0
M  END
>  <Title>  (929) 
idABJSgen8

$$$$

     RDKit          2D

 15 16  0  0  0  0  0  0  0  0999 V2000
    4.2450    5.9653    0.0000 C   0  0  0  0  0  0  0  0  0  0  0  0
    2.7516    6.1053    0.0000 O   0  0  0  0  0  0  0  0  0  0  0  0
    1.8836    4.8820    0.0000 C   0  0  0  0  0  0  0  0  0  0  0  0
    2.6816    3.6119    0.0000 C   0  0  0  0  0  0  0  0  0  0  0  0
    2.3478    2.1495    0.0000 C   0  0  0  0  0  0  0  0  0  0  0  0
    1.0777    1.3515    0.0000 C   0  0  0  0  0  0  0  0  0  0  0  0
    1.7286    0.0000    0.0000 C   0  0  0  0  0  0  0  0  0  0  0  0
    1.0777   -1.3515    0.0000 C   0  0  0  0  0  0  0  0  0  0  0  0
   -0.3846   -1.6852    0.0000 C   0  0  0  0  0  0  0  0  0  0  0  0
   -1.5574   -0.7500    0.0000 C   0  0  0  0  0  0  0  0  0  0  0  0
   -1.5574    0.7500    0.0000 C   0  0  0  0  0  0  0  0  0  0  0  0
   -0.3846    1.6852    0.0000 C   0  0  0  0  0  0  0  0  0  0  0  0
   -1.1827    2.9553    0.0000 N   0  0  0  0  0  0  0  0  0  0  0  0
   -0.8489    4.4177    0.0000 C   0  0  0  0  0  0  0  0  0  0  0  0
    0.4212    5.2158    0.0000 N   0  0  0  0  0  0  0  0  0  0  0  0
  1  2  1  0
  2  3  1  0
  3  4  2  0
  4  5  1  0
  5  6  2  0
  6  7  1  0
  7  8  2  0
  8  9  1  0
  9 10  2  0
 10 11  1  0
 11 12  2  0
 12 13  1  0
 13 14  1  0
 14 15  1  0
 15  3  1  0
 12  6  1  0
M  END
>  <Title>  (930) 
idABJTgen8

$$$$

     RDKit          2D

 22 23  0  0  0  0  0  0  0  0999 V2000
    8.0968    4.2770    0.0000 C   0  0  0  0  0  0  0  0  0  0  0  0
    6.7265    4.8871    0.0000 O   0  0  0  0  0  0  0  0  0  0  0  0
    5.5130    4.0054    0.0000 C   0  0  0  0  0  0  0  0  0  0  0  0
    5.7808    2.5295    0.0000 C   0  0  0  0  0  0  0  0  0  0  0  0
    4.7939    1.3999    0.0000 C   0  0  0  0  0  0  0  0  0  0  0  0
    3.2954    1.4672    0.0000 C   0  0  0  0  0  0  0  0  0  0  0  0
    3.6073    0.0000    0.0000 C   0  0  0  0  0  0  0  0  0  0  0  0
    3.2954   -1.4672    0.0000 C   0  0  0  0  0  0  0  0  0  0  0  0
    2.4138   -2.6807    0.0000 C   0  0  0  0  0  0  0  0  0  0  0  0
    1.1147   -3.4307    0.0000 C   0  0  0  0  0  0  0  0  0  0  0  0
   -0.3771   -3.5875    0.0000 C   0  0  0  0  0  0  0  0  0  0  0  0
   -1.8037   -3.1240    0.0000 C   0  0  0  0  0  0  0  0  0  0  0  0
   -2.9184   -2.1203    0.0000 C   0  0  0  0  0  0  0  0  0  0  0  0
   -3.5285   -0.7500    0.0000 C   0  0  0  0  0  0  0  0  0  0  0  0
   -3.5285    0.7500    0.0000 C   0  0  0  0  0  0  0  0  0  0  0  0
   -2.9184    2.1203    0.0000 C   0  0  0  0  0  0  0  0  0  0  0  0
   -1.8037    3.1240    0.0000 C   0  0  0  0  0  0  0  0  0  0  0  0
   -0.3771    3.5875    0.0000 C   0  0  0  0  0  0  0  0  0  0  0  0
    1.1147    3.4307    0.0000 C   0  0  0  0  0  0  0  0  0  0  0  0
    2.4138    2.6807    0.0000 C   0  0  0  0  0  0  0  0  0  0  0  0
    2.8128    4.1267    0.0000 C   0  0  0  0  0  0  0  0  0  0  0  0
    4.1921    4.7162    0.0000 C   0  0  0  0  0  0  0  0  0  0  0  0
  1  2  1  0
  2  3  1  0
  3  4  2  0
  4  5  1  0
  5  6  2  0
  6  7  1  0
  7  8  2  0
  8  9  1  0
  9 10  2  0
 10 11  1  0
 11 12  2  0
 12 13  1  0
 13 14  2  0
 14 15  1  0
 15 16  2  0
 16 17  1  0
 17 18  2  0
 18 19  1  0
 19 20  2  0
 20 21  1  0
 21 22  2  0
 22  3  1  0
 20  6  1  0
M  END
>  <Title>  (931) 
idABJUgen8

$$$$

     RDKit          2D

  9  9  0  0  0  0  0  0  0  0999 V2000
    3.0000    0.0000    0.0000 C   0  0  0  0  0  0  0  0  0  0  0  0
    1.5000    0.0000    0.0000 C   0  0  0  0  0  0  0  0  0  0  0  0
    0.7500   -1.2990    0.0000 C   0  0  0  0  0  0  0  0  0  0  0  0
   -0.7500   -1.2990    0.0000 C   0  0  0  0  0  0  0  0  0  0  0  0
   -1.5000    0.0000    0.0000 C   0  0  0  0  0  0  0  0  0  0  0  0
   -3.0000    0.0000    0.0000 C   0  0  0  0  0  0  0  0  0  0  0  0
   -0.7500    1.2990    0.0000 C   0  0  0  0  0  0  0  0  0  0  0  0
   -1.5000    2.5981    0.0000 O   0  0  0  0  0  0  0  0  0  0  0  0
    0.7500    1.2990    0.0000 N   0  0  0  0  0  0  0  0  0  0  0  0
  1  2  1  0
  2  3  2  0
  3  4  1  0
  4  5  2  0
  5  6  1  0
  5  7  1  0
  7  8  2  0
  7  9  1  0
  9  2  1  0
M  END
>  <Title>  (932) 
idABJVgen8

$$$$

     RDKit          2D

 32 36  0  0  0  0  0  0  0  0999 V2000
    3.0000    0.0000    0.0000 C   0  0  0  0  0  0  0  0  0  0  0  0
    1.5000    0.0000    0.0000 C   0  0  0  0  0  0  0  0  0  0  0  0
    0.7500   -1.2990    0.0000 C   0  0  0  0  0  0  0  0  0  0  0  0
   -0.7500   -1.2990    0.0000 C   0  0  0  0  0  0  0  0  0  0  0  0
   -1.5000    0.0000    0.0000 C   0  0  0  0  0  0  0  0  0  0  0  0
   -3.0000    0.0000    0.0000 C   0  0  0  0  0  0  0  0  0  0  0  0
   -3.8817   -1.2135    0.0000 N   0  0  0  0  0  0  0  0  0  0  0  0
   -5.3083   -0.7500    0.0000 N   0  0  0  0  0  0  0  0  0  0  0  0
   -5.3083    0.7500    0.0000 N   0  0  0  0  0  0  0  0  0  0  0  0
   -3.8817    1.2135    0.0000 N   0  0  0  0  0  0  0  0  0  0  0  0
   -3.4182    2.6401    0.0000 C   0  0  0  0  0  0  0  0  0  0  0  0
   -1.9509    2.9520    0.0000 C   0  0  0  0  0  0  0  0  0  0  0  0
   -1.4874    4.3786    0.0000 C   0  0  0  0  0  0  0  0  0  0  0  0
   -2.4911    5.4933    0.0000 C   0  0  0  0  0  0  0  0  0  0  0  0
   -3.9583    5.1814    0.0000 C   0  0  0  0  0  0  0  0  0  0  0  0
   -4.4218    3.7548    0.0000 C   0  0  0  0  0  0  0  0  0  0  0  0
   -5.8891    3.4430    0.0000 C   0  0  0  0  0  0  0  0  0  0  0  0
   -6.4992    2.0726    0.0000 C   0  0  0  0  0  0  0  0  0  0  0  0
   -7.9910    2.2294    0.0000 N   0  0  0  0  0  0  0  0  0  0  0  0
   -8.3028    3.6967    0.0000 N   0  0  0  0  0  0  0  0  0  0  0  0
   -7.0038    4.4467    0.0000 N   0  0  0  0  0  0  0  0  0  0  0  0
   -6.8470    5.9384    0.0000 C   0  0  0  0  0  0  0  0  0  0  0  0
   -7.9617    6.9421    0.0000 C   0  0  0  0  0  0  0  0  0  0  0  0
   -7.3516    8.3125    0.0000 C   0  0  0  0  0  0  0  0  0  0  0  0
   -5.8598    8.1557    0.0000 C   0  0  0  0  0  0  0  0  0  0  0  0
   -4.8561    9.2704    0.0000 C   0  0  0  0  0  0  0  0  0  0  0  0
   -5.3197   10.6970    0.0000 O   0  0  0  0  0  0  0  0  0  0  0  0
   -3.3889    8.9585    0.0000 O   0  0  0  0  0  0  0  0  0  0  0  0
   -5.5480    6.6884    0.0000 C   0  0  0  0  0  0  0  0  0  0  0  0
   -4.1776    6.0783    0.0000 O   0  0  0  0  0  0  0  0  0  0  0  0
   -0.7500    1.2990    0.0000 C   0  0  0  0  0  0  0  0  0  0  0  0
    0.7500    1.2990    0.0000 C   0  0  0  0  0  0  0  0  0  0  0  0
  1  2  1  0
  2  3  2  0
  3  4  1  0
  4  5  2  0
  5  6  1  0
  6  7  2  0
  7  8  1  0
  8  9  2  0
  9 10  1  0
 10 11  1  0
 11 12  1  0
 12 13  1  0
 13 14  1  0
 14 15  1  0
 15 16  1  0
 16 17  1  0
 17 18  2  0
 18 19  1  0
 19 20  2  0
 20 21  1  0
 21 22  1  0
 22 23  2  0
 23 24  1  0
 24 25  2  0
 25 26  1  0
 26 27  2  0
 26 28  1  0
 25 29  1  0
 29 30  2  0
  5 31  1  0
 31 32  2  0
 32  2  1  0
 10  6  1  0
 16 11  1  0
 21 17  1  0
 29 22  1  0
M  END
>  <Title>  (933) 
idABJWgen8

$$$$

     RDKit          2D

  9  9  0  0  0  0  0  0  0  0999 V2000
    3.7500   -1.2990    0.0000 C   0  0  0  0  0  0  0  0  0  0  0  0
    3.0000    0.0000    0.0000 O   0  0  0  0  0  0  0  0  0  0  0  0
    1.5000    0.0000    0.0000 C   0  0  0  0  0  0  0  0  0  0  0  0
    0.7500   -1.2990    0.0000 C   0  0  0  0  0  0  0  0  0  0  0  0
   -0.7500   -1.2990    0.0000 C   0  0  0  0  0  0  0  0  0  0  0  0
   -1.5000    0.0000    0.0000 C   0  0  0  0  0  0  0  0  0  0  0  0
   -0.7500    1.2990    0.0000 C   0  0  0  0  0  0  0  0  0  0  0  0
    0.7500    1.2990    0.0000 C   0  0  0  0  0  0  0  0  0  0  0  0
    1.5000    2.5981    0.0000 C   0  0  0  0  0  0  0  0  0  0  0  0
  1  2  1  0
  2  3  1  0
  3  4  2  0
  4  5  1  0
  5  6  2  0
  6  7  1  0
  7  8  2  0
  8  9  1  0
  8  3  1  0
M  END
>  <Title>  (934) 
idABJXgen8

$$$$

     RDKit          2D

 24 24  0  0  0  0  0  0  0  0999 V2000
    8.5443   -1.2990    0.0000 C   0  0  0  0  0  0  0  0  0  0  0  0
    7.0443   -1.2990    0.0000 C   0  0  0  0  0  0  0  0  0  0  0  0
    6.2943   -2.5981    0.0000 O   0  0  0  0  0  0  0  0  0  0  0  0
    6.2943    0.0000    0.0000 O   0  0  0  0  0  0  0  0  0  0  0  0
    4.7943    0.0000    0.0000 C   0  0  0  0  0  0  0  0  0  0  0  0
    4.5597   -1.4815    0.0000 C   0  0  0  0  0  0  0  0  0  0  0  0
    3.8787   -2.8180    0.0000 C   0  0  0  0  0  0  0  0  0  0  0  0
    2.8180   -3.8787    0.0000 C   0  0  0  0  0  0  0  0  0  0  0  0
    1.4815   -4.5597    0.0000 C   0  0  0  0  0  0  0  0  0  0  0  0
   -0.0000   -4.7943    0.0000 C   0  0  0  0  0  0  0  0  0  0  0  0
   -1.4815   -4.5597    0.0000 C   0  0  0  0  0  0  0  0  0  0  0  0
   -2.8180   -3.8787    0.0000 C   0  0  0  0  0  0  0  0  0  0  0  0
   -3.8787   -2.8180    0.0000 C   0  0  0  0  0  0  0  0  0  0  0  0
   -4.5597   -1.4815    0.0000 C   0  0  0  0  0  0  0  0  0  0  0  0
   -4.7943    0.0000    0.0000 C   0  0  0  0  0  0  0  0  0  0  0  0
   -4.5597    1.4815    0.0000 C   0  0  0  0  0  0  0  0  0  0  0  0
   -3.8787    2.8180    0.0000 C   0  0  0  0  0  0  0  0  0  0  0  0
   -2.8180    3.8787    0.0000 C   0  0  0  0  0  0  0  0  0  0  0  0
   -1.4815    4.5597    0.0000 C   0  0  0  0  0  0  0  0  0  0  0  0
    0.0000    4.7943    0.0000 C   0  0  0  0  0  0  0  0  0  0  0  0
    1.4815    4.5597    0.0000 C   0  0  0  0  0  0  0  0  0  0  0  0
    2.8180    3.8787    0.0000 C   0  0  0  0  0  0  0  0  0  0  0  0
    3.8787    2.8180    0.0000 C   0  0  0  0  0  0  0  0  0  0  0  0
    4.5597    1.4815    0.0000 C   0  0  0  0  0  0  0  0  0  0  0  0
  1  2  1  0
  2  3  2  0
  2  4  1  0
  4  5  1  0
  5  6  2  0
  6  7  1  0
  7  8  2  0
  8  9  1  0
  9 10  2  0
 10 11  1  0
 11 12  2  0
 12 13  1  0
 13 14  2  0
 14 15  1  0
 15 16  2  0
 16 17  1  0
 17 18  2  0
 18 19  1  0
 19 20  2  0
 20 21  1  0
 21 22  2  0
 22 23  1  0
 23 24  2  0
 24  5  1  0
M  END
>  <Title>  (935) 
idABJYgen8

$$$$

     RDKit          2D

 11 11  0  0  0  0  0  0  0  0999 V2000
    3.4598   -0.0000    0.0000 C   0  0  0  0  0  0  0  0  0  0  0  0
    1.9598    0.0000    0.0000 C   0  0  0  0  0  0  0  0  0  0  0  0
    1.3858   -1.3858    0.0000 C   0  0  0  0  0  0  0  0  0  0  0  0
   -0.0000   -1.9598    0.0000 C   0  0  0  0  0  0  0  0  0  0  0  0
   -1.3858   -1.3858    0.0000 C   0  0  0  0  0  0  0  0  0  0  0  0
   -1.9598    0.0000    0.0000 C   0  0  0  0  0  0  0  0  0  0  0  0
   -1.3858    1.3858    0.0000 C   0  0  0  0  0  0  0  0  0  0  0  0
   -2.4465    2.4465    0.0000 F   0  0  0  0  0  0  0  0  0  0  0  0
    0.0000    1.9598    0.0000 C   0  0  0  0  0  0  0  0  0  0  0  0
    0.0000    3.4598    0.0000 O   0  0  0  0  0  0  0  0  0  0  0  0
    1.3858    1.3858    0.0000 N   0  0  0  0  0  0  0  0  0  0  0  0
  1  2  1  0
  2  3  2  0
  3  4  1  0
  4  5  2  0
  5  6  1  0
  6  7  2  0
  7  8  1  0
  7  9  1  0
  9 10  2  0
  9 11  1  0
 11  2  1  0
M  END
>  <Title>  (936) 
idABJZgen8

$$$$

     RDKit          2D

 63 73  0  0  0  0  0  0  0  0999 V2000
    2.7225    7.3395    0.0000 C   0  0  0  0  0  0  0  0  0  0  0  0
    1.5090    6.4579    0.0000 C   0  0  0  0  0  0  0  0  0  0  0  0
    2.1191    5.0875    0.0000 C   0  0  0  0  0  0  0  0  0  0  0  0
    2.1191    3.5875    0.0000 C   0  0  0  0  0  0  0  0  0  0  0  0
    1.5090    2.2172    0.0000 C   0  0  0  0  0  0  0  0  0  0  0  0
    0.3943    1.2135    0.0000 C   0  0  0  0  0  0  0  0  0  0  0  0
    1.2760    0.0000    0.0000 C   0  0  0  0  0  0  0  0  0  0  0  0
    0.3943   -1.2135    0.0000 C   0  0  0  0  0  0  0  0  0  0  0  0
   -1.0323   -0.7500    0.0000 C   0  0  0  0  0  0  0  0  0  0  0  0
   -1.0323    0.7500    0.0000 C   0  0  0  0  0  0  0  0  0  0  0  0
   -2.5241    0.9068    0.0000 C   0  0  0  0  0  0  0  0  0  0  0  0
   -2.5241   -0.5932    0.0000 C   0  0  0  0  0  0  0  0  0  0  0  0
   -3.8231   -1.3432    0.0000 C   0  0  0  0  0  0  0  0  0  0  0  0
   -5.1221   -0.5932    0.0000 C   0  0  0  0  0  0  0  0  0  0  0  0
   -6.4212   -1.3432    0.0000 C   0  0  0  0  0  0  0  0  0  0  0  0
   -7.7915   -0.7331    0.0000 N   0  0  0  0  0  0  0  0  0  0  0  0
   -8.7952   -1.8478    0.0000 N   0  0  0  0  0  0  0  0  0  0  0  0
   -8.0452   -3.1469    0.0000 N   0  0  0  0  0  0  0  0  0  0  0  0
   -6.5780   -2.8350    0.0000 N   0  0  0  0  0  0  0  0  0  0  0  0
   -5.4633   -3.8387    0.0000 C   0  0  0  0  0  0  0  0  0  0  0  0
   -4.0367   -3.3752    0.0000 C   0  0  0  0  0  0  0  0  0  0  0  0
   -2.9220   -4.3789    0.0000 C   0  0  0  0  0  0  0  0  0  0  0  0
   -3.2338   -5.8461    0.0000 C   0  0  0  0  0  0  0  0  0  0  0  0
   -4.6604   -6.3096    0.0000 C   0  0  0  0  0  0  0  0  0  0  0  0
   -5.7751   -5.3059    0.0000 C   0  0  0  0  0  0  0  0  0  0  0  0
   -5.1221    0.9068    0.0000 C   0  0  0  0  0  0  0  0  0  0  0  0
   -3.8231    1.6568    0.0000 C   0  0  0  0  0  0  0  0  0  0  0  0
   -4.7048    2.8703    0.0000 C   0  0  0  0  0  0  0  0  0  0  0  0
   -5.8195    1.8666    0.0000 C   0  0  0  0  0  0  0  0  0  0  0  0
   -7.2461    2.3301    0.0000 C   0  0  0  0  0  0  0  0  0  0  0  0
   -7.5580    3.7974    0.0000 C   0  0  0  0  0  0  0  0  0  0  0  0
   -8.9845    4.2609    0.0000 C   0  0  0  0  0  0  0  0  0  0  0  0
   -9.2964    5.7281    0.0000 C   0  0  0  0  0  0  0  0  0  0  0  0
  -10.7230    6.1916    0.0000 C   0  0  0  0  0  0  0  0  0  0  0  0
  -11.8377    5.1879    0.0000 C   0  0  0  0  0  0  0  0  0  0  0  0
  -11.5258    3.7207    0.0000 C   0  0  0  0  0  0  0  0  0  0  0  0
  -10.0993    3.2572    0.0000 C   0  0  0  0  0  0  0  0  0  0  0  0
   -6.4432    4.8011    0.0000 C   0  0  0  0  0  0  0  0  0  0  0  0
   -5.0167    4.3375    0.0000 C   0  0  0  0  0  0  0  0  0  0  0  0
   -4.7048    5.8048    0.0000 C   0  0  0  0  0  0  0  0  0  0  0  0
   -3.8231    7.0183    0.0000 C   0  0  0  0  0  0  0  0  0  0  0  0
   -2.5241    7.7683    0.0000 C   0  0  0  0  0  0  0  0  0  0  0  0
   -1.0323    7.9251    0.0000 C   0  0  0  0  0  0  0  0  0  0  0  0
    0.3943    7.4616    0.0000 N   0  0  0  0  0  0  0  0  0  0  0  0
   -1.5453    9.3346    0.0000 C   0  0  0  0  0  0  0  0  0  0  0  0
   -0.4306   10.3383    0.0000 N   0  0  0  0  0  0  0  0  0  0  0  0
   -1.0407   11.7086    0.0000 N   0  0  0  0  0  0  0  0  0  0  0  0
   -2.5325   11.5518    0.0000 N   0  0  0  0  0  0  0  0  0  0  0  0
   -2.8444   10.0846    0.0000 N   0  0  0  0  0  0  0  0  0  0  0  0
   -4.3216    9.8241    0.0000 C   0  0  0  0  0  0  0  0  0  0  0  0
   -5.5816   10.6380    0.0000 C   0  0  0  0  0  0  0  0  0  0  0  0
   -7.0035   10.1602    0.0000 C   0  0  0  0  0  0  0  0  0  0  0  0
   -7.5165    8.7507    0.0000 C   0  0  0  0  0  0  0  0  0  0  0  0
   -9.0091    8.6013    0.0000 C   0  0  0  0  0  0  0  0  0  0  0  0
   -9.8847    9.8193    0.0000 C   0  0  0  0  0  0  0  0  0  0  0  0
  -11.3772    9.6699    0.0000 C   0  0  0  0  0  0  0  0  0  0  0  0
  -11.9942    8.3026    0.0000 C   0  0  0  0  0  0  0  0  0  0  0  0
  -11.1185    7.0847    0.0000 C   0  0  0  0  0  0  0  0  0  0  0  0
   -9.6260    7.2341    0.0000 C   0  0  0  0  0  0  0  0  0  0  0  0
   -6.7344    7.4708    0.0000 C   0  0  0  0  0  0  0  0  0  0  0  0
   -5.2857    7.1751    0.0000 C   0  0  0  0  0  0  0  0  0  0  0  0
   -5.2857    8.6751    0.0000 C   0  0  0  0  0  0  0  0  0  0  0  0
   -6.6953    9.1881    0.0000 O   0  0  0  0  0  0  0  0  0  0  0  0
  1  2  1  0
  2  3  2  0
  3  4  1  0
  4  5  2  0
  5  6  2  0
  6  7  1  0
  7  8  1  0
  8  9  1  0
  9 10  2  0
 10 11  1  0
 11 12  2  0
 12 13  1  0
 13 14  2  0
 14 15  1  0
 15 16  2  0
 16 17  1  0
 17 18  2  0
 18 19  1  0
 19 20  1  0
 20 21  2  0
 21 22  1  0
 22 23  2  0
 23 24  1  0
 24 25  2  0
 14 26  1  0
 26 27  2  0
 27 28  1  0
 28 29  2  0
 29 30  1  0
 30 31  2  0
 31 32  1  0
 32 33  2  0
 33 34  1  0
 34 35  2  0
 35 36  1  0
 36 37  2  0
 31 38  1  0
 38 39  2  0
 39 40  1  0
 40 41  2  0
 41 42  1  0
 42 43  2  0
 43 44  1  0
 43 45  1  0
 45 46  2  0
 46 47  1  0
 47 48  2  0
 48 49  1  0
 49 50  1  0
 50 51  2  0
 51 52  1  0
 52 53  2  0
 53 54  1  0
 54 55  2  0
 55 56  1  0
 56 57  2  0
 57 58  1  0
 58 59  2  0
 53 60  1  0
 60 61  2  0
 61 62  1  0
 62 63  2  0
 44  2  1  0
 49 45  1  0
 62 50  1  0
 10  6  1  0
 27 11  1  0
 39 28  1  0
 61 40  1  0
 19 15  1  0
 25 20  1  0
 37 32  1  0
 59 54  1  0
M  END
>  <Title>  (937) 
idABKAgen8

$$$$

     RDKit          2D

 22 22  0  0  0  0  0  0  0  0999 V2000
    7.0443   -1.2990    0.0000 N   0  0  0  0  0  0  0  0  0  0  0  0
    6.2943    0.0000    0.0000 C   0  0  0  0  0  0  0  0  0  0  0  0
    4.7943    0.0000    0.0000 C   0  0  0  0  0  0  0  0  0  0  0  0
    4.5597   -1.4815    0.0000 C   0  0  0  0  0  0  0  0  0  0  0  0
    3.8787   -2.8180    0.0000 C   0  0  0  0  0  0  0  0  0  0  0  0
    2.8180   -3.8787    0.0000 C   0  0  0  0  0  0  0  0  0  0  0  0
    1.4815   -4.5597    0.0000 C   0  0  0  0  0  0  0  0  0  0  0  0
   -0.0000   -4.7943    0.0000 C   0  0  0  0  0  0  0  0  0  0  0  0
   -1.4815   -4.5597    0.0000 C   0  0  0  0  0  0  0  0  0  0  0  0
   -2.8180   -3.8787    0.0000 C   0  0  0  0  0  0  0  0  0  0  0  0
   -3.8787   -2.8180    0.0000 C   0  0  0  0  0  0  0  0  0  0  0  0
   -4.5597   -1.4815    0.0000 C   0  0  0  0  0  0  0  0  0  0  0  0
   -4.7943    0.0000    0.0000 C   0  0  0  0  0  0  0  0  0  0  0  0
   -4.5597    1.4815    0.0000 C   0  0  0  0  0  0  0  0  0  0  0  0
   -3.8787    2.8180    0.0000 C   0  0  0  0  0  0  0  0  0  0  0  0
   -2.8180    3.8787    0.0000 C   0  0  0  0  0  0  0  0  0  0  0  0
   -1.4815    4.5597    0.0000 C   0  0  0  0  0  0  0  0  0  0  0  0
    0.0000    4.7943    0.0000 C   0  0  0  0  0  0  0  0  0  0  0  0
    1.4815    4.5597    0.0000 C   0  0  0  0  0  0  0  0  0  0  0  0
    2.8180    3.8787    0.0000 C   0  0  0  0  0  0  0  0  0  0  0  0
    3.8787    2.8180    0.0000 C   0  0  0  0  0  0  0  0  0  0  0  0
    4.5597    1.4815    0.0000 C   0  0  0  0  0  0  0  0  0  0  0  0
  1  2  1  0
  2  3  1  0
  3  4  2  0
  4  5  1  0
  5  6  2  0
  6  7  1  0
  7  8  2  0
  8  9  1  0
  9 10  2  0
 10 11  1  0
 11 12  2  0
 12 13  1  0
 13 14  2  0
 14 15  1  0
 15 16  2  0
 16 17  1  0
 17 18  2  0
 18 19  1  0
 19 20  2  0
 20 21  1  0
 21 22  2  0
 22  3  1  0
M  END
>  <Title>  (938) 
idABKBgen8

$$$$

     RDKit          2D

 21 22  0  0  0  0  0  0  0  0999 V2000
    5.1073    0.0000    0.0000 C   0  0  0  0  0  0  0  0  0  0  0  0
    3.6073    0.0000    0.0000 C   0  0  0  0  0  0  0  0  0  0  0  0
    3.2954    1.4672    0.0000 C   0  0  0  0  0  0  0  0  0  0  0  0
    2.4138    2.6807    0.0000 C   0  0  0  0  0  0  0  0  0  0  0  0
    1.1147    3.4307    0.0000 C   0  0  0  0  0  0  0  0  0  0  0  0
   -0.3771    3.5875    0.0000 C   0  0  0  0  0  0  0  0  0  0  0  0
   -1.8037    3.1240    0.0000 N   0  0  0  0  0  0  0  0  0  0  0  0
   -2.9184    2.1203    0.0000 N   0  0  0  0  0  0  0  0  0  0  0  0
   -3.5285    0.7500    0.0000 N   0  0  0  0  0  0  0  0  0  0  0  0
   -3.5285   -0.7500    0.0000 N   0  0  0  0  0  0  0  0  0  0  0  0
   -2.9184   -2.1203    0.0000 C   0  0  0  0  0  0  0  0  0  0  0  0
   -4.2174   -2.8703    0.0000 C   0  0  0  0  0  0  0  0  0  0  0  0
   -5.5877   -2.2602    0.0000 O   0  0  0  0  0  0  0  0  0  0  0  0
   -3.9055   -4.3375    0.0000 N   0  0  0  0  0  0  0  0  0  0  0  0
   -2.4138   -4.4943    0.0000 C   0  0  0  0  0  0  0  0  0  0  0  0
   -1.6638   -5.7934    0.0000 O   0  0  0  0  0  0  0  0  0  0  0  0
   -1.8037   -3.1240    0.0000 C   0  0  0  0  0  0  0  0  0  0  0  0
   -0.3771   -3.5875    0.0000 N   0  0  0  0  0  0  0  0  0  0  0  0
    1.1147   -3.4307    0.0000 N   0  0  0  0  0  0  0  0  0  0  0  0
    2.4138   -2.6807    0.0000 N   0  0  0  0  0  0  0  0  0  0  0  0
    3.2954   -1.4672    0.0000 N   0  0  0  0  0  0  0  0  0  0  0  0
  1  2  1  0
  2  3  2  0
  3  4  1  0
  4  5  2  0
  5  6  1  0
  6  7  2  0
  7  8  1  0
  8  9  2  0
  9 10  1  0
 10 11  2  0
 11 12  1  0
 12 13  2  0
 12 14  1  0
 14 15  1  0
 15 16  2  0
 15 17  1  0
 17 18  2  0
 18 19  1  0
 19 20  2  0
 20 21  1  0
 21  2  1  0
 17 11  1  0
M  END
>  <Title>  (939) 
idABKCgen8

$$$$

     RDKit          2D

 14 15  0  0  0  0  0  0  0  0999 V2000
    2.8449    6.6264    0.0000 C   0  0  0  0  0  0  0  0  0  0  0  0
    1.4115    6.1843    0.0000 O   0  0  0  0  0  0  0  0  0  0  0  0
    1.0777    4.7219    0.0000 C   0  0  0  0  0  0  0  0  0  0  0  0
    2.2505    3.7867    0.0000 C   0  0  0  0  0  0  0  0  0  0  0  0
    2.2505    2.2867    0.0000 C   0  0  0  0  0  0  0  0  0  0  0  0
    1.0777    1.3515    0.0000 C   0  0  0  0  0  0  0  0  0  0  0  0
    1.7286    0.0000    0.0000 C   0  0  0  0  0  0  0  0  0  0  0  0
    1.0777   -1.3515    0.0000 C   0  0  0  0  0  0  0  0  0  0  0  0
   -0.3846   -1.6852    0.0000 C   0  0  0  0  0  0  0  0  0  0  0  0
   -1.5574   -0.7500    0.0000 C   0  0  0  0  0  0  0  0  0  0  0  0
   -1.5574    0.7500    0.0000 C   0  0  0  0  0  0  0  0  0  0  0  0
   -0.3846    1.6852    0.0000 C   0  0  0  0  0  0  0  0  0  0  0  0
   -1.0355    3.0367    0.0000 C   0  0  0  0  0  0  0  0  0  0  0  0
   -0.3846    4.3881    0.0000 C   0  0  0  0  0  0  0  0  0  0  0  0
  1  2  1  0
  2  3  1  0
  3  4  2  0
  4  5  1  0
  5  6  2  0
  6  7  1  0
  7  8  2  0
  8  9  1  0
  9 10  2  0
 10 11  1  0
 11 12  2  0
 12 13  1  0
 13 14  1  0
 14  3  1  0
 12  6  1  0
M  END
>  <Title>  (940) 
idABKDgen8

$$$$

     RDKit          2D

 37 42  0  0  0  0  0  0  0  0999 V2000
    3.7500   -1.2990    0.0000 C   0  0  0  0  0  0  0  0  0  0  0  0
    3.0000    0.0000    0.0000 O   0  0  0  0  0  0  0  0  0  0  0  0
    1.5000    0.0000    0.0000 C   0  0  0  0  0  0  0  0  0  0  0  0
    0.7500   -1.2990    0.0000 C   0  0  0  0  0  0  0  0  0  0  0  0
   -0.7500   -1.2990    0.0000 C   0  0  0  0  0  0  0  0  0  0  0  0
   -1.5000    0.0000    0.0000 C   0  0  0  0  0  0  0  0  0  0  0  0
   -3.0000    0.0000    0.0000 C   0  0  0  0  0  0  0  0  0  0  0  0
   -3.8817   -1.2135    0.0000 C   0  0  0  0  0  0  0  0  0  0  0  0
   -5.3083   -0.7500    0.0000 N   0  0  0  0  0  0  0  0  0  0  0  0
   -5.3083    0.7500    0.0000 N   0  0  0  0  0  0  0  0  0  0  0  0
   -3.8817    1.2135    0.0000 N   0  0  0  0  0  0  0  0  0  0  0  0
   -3.4182    2.6401    0.0000 C   0  0  0  0  0  0  0  0  0  0  0  0
   -1.9509    2.9520    0.0000 C   0  0  0  0  0  0  0  0  0  0  0  0
   -1.4874    4.3786    0.0000 C   0  0  0  0  0  0  0  0  0  0  0  0
   -2.4911    5.4933    0.0000 C   0  0  0  0  0  0  0  0  0  0  0  0
   -3.9583    5.1814    0.0000 C   0  0  0  0  0  0  0  0  0  0  0  0
   -4.4218    3.7548    0.0000 C   0  0  0  0  0  0  0  0  0  0  0  0
   -5.8891    3.4430    0.0000 C   0  0  0  0  0  0  0  0  0  0  0  0
   -6.4992    2.0726    0.0000 C   0  0  0  0  0  0  0  0  0  0  0  0
   -7.9910    2.2294    0.0000 C   0  0  0  0  0  0  0  0  0  0  0  0
   -8.3028    3.6967    0.0000 C   0  0  0  0  0  0  0  0  0  0  0  0
   -9.6731    4.3068    0.0000 C   0  0  0  0  0  0  0  0  0  0  0  0
  -10.9722    3.5568    0.0000 N   0  0  0  0  0  0  0  0  0  0  0  0
  -12.0869    4.5605    0.0000 N   0  0  0  0  0  0  0  0  0  0  0  0
  -11.4768    5.9308    0.0000 N   0  0  0  0  0  0  0  0  0  0  0  0
   -9.9850    5.7740    0.0000 N   0  0  0  0  0  0  0  0  0  0  0  0
   -8.9813    6.8887    0.0000 C   0  0  0  0  0  0  0  0  0  0  0  0
   -7.5141    6.5768    0.0000 C   0  0  0  0  0  0  0  0  0  0  0  0
   -6.5104    7.6915    0.0000 C   0  0  0  0  0  0  0  0  0  0  0  0
   -6.9739    9.1181    0.0000 C   0  0  0  0  0  0  0  0  0  0  0  0
   -8.4411    9.4300    0.0000 C   0  0  0  0  0  0  0  0  0  0  0  0
   -9.4448    8.3153    0.0000 C   0  0  0  0  0  0  0  0  0  0  0  0
   -7.0038    4.4467    0.0000 C   0  0  0  0  0  0  0  0  0  0  0  0
   -6.8470    5.9384    0.0000 O   0  0  0  0  0  0  0  0  0  0  0  0
   -0.7500    1.2990    0.0000 N   0  0  0  0  0  0  0  0  0  0  0  0
    0.7500    1.2990    0.0000 C   0  0  0  0  0  0  0  0  0  0  0  0
    1.5000    2.5981    0.0000 O   0  0  0  0  0  0  0  0  0  0  0  0
  1  2  1  0
  2  3  1  0
  3  4  2  0
  4  5  1  0
  5  6  2  0
  6  7  1  0
  7  8  2  0
  8  9  1  0
  9 10  2  0
 10 11  1  0
 11 12  1  0
 12 13  1  0
 13 14  1  0
 14 15  1  0
 15 16  1  0
 16 17  1  0
 17 18  1  0
 18 19  2  0
 19 20  1  0
 20 21  2  0
 21 22  1  0
 22 23  2  0
 23 24  1  0
 24 25  2  0
 25 26  1  0
 26 27  1  0
 27 28  2  0
 28 29  1  0
 29 30  2  0
 30 31  1  0
 31 32  2  0
 21 33  1  0
 33 34  2  0
  6 35  1  0
 35 36  1  0
 36 37  2  0
 36  3  1  0
 11  7  1  0
 17 12  1  0
 33 18  1  0
 26 22  1  0
 32 27  1  0
M  END
>  <Title>  (941) 
idABKEgen8

$$$$

     RDKit          2D

 33 34  0  0  0  0  0  0  0  0999 V2000
   -6.5145    8.9001    0.0000 C   0  0  0  0  0  0  0  0  0  0  0  0
   -5.8116    7.5750    0.0000 O   0  0  0  0  0  0  0  0  0  0  0  0
   -4.3126    7.5212    0.0000 C   0  0  0  0  0  0  0  0  0  0  0  0
   -4.0713    9.0016    0.0000 C   0  0  0  0  0  0  0  0  0  0  0  0
   -3.4694   10.3756    0.0000 C   0  0  0  0  0  0  0  0  0  0  0  0
   -2.5447   11.5567    0.0000 C   0  0  0  0  0  0  0  0  0  0  0  0
   -1.3554   12.4707    0.0000 C   0  0  0  0  0  0  0  0  0  0  0  0
    0.0239   13.0602    0.0000 C   0  0  0  0  0  0  0  0  0  0  0  0
    1.5065   13.2882    0.0000 C   0  0  0  0  0  0  0  0  0  0  0  0
    2.9992   13.1404    0.0000 C   0  0  0  0  0  0  0  0  0  0  0  0
    4.4082   12.6259    0.0000 C   0  0  0  0  0  0  0  0  0  0  0  0
    5.6451   11.7773    0.0000 C   0  0  0  0  0  0  0  0  0  0  0  0
    6.6320   10.6476    0.0000 C   0  0  0  0  0  0  0  0  0  0  0  0
    7.3069    9.3081    0.0000 C   0  0  0  0  0  0  0  0  0  0  0  0
    7.6276    7.8428    0.0000 C   0  0  0  0  0  0  0  0  0  0  0  0
    7.5737    6.3437    0.0000 C   0  0  0  0  0  0  0  0  0  0  0  0
    7.1488    4.9052    0.0000 C   0  0  0  0  0  0  0  0  0  0  0  0
    6.3794    3.6175    0.0000 C   0  0  0  0  0  0  0  0  0  0  0  0
    5.3140    2.5616    0.0000 C   0  0  0  0  0  0  0  0  0  0  0  0
    4.0195    1.8039    0.0000 C   0  0  0  0  0  0  0  0  0  0  0  0
    2.5772    1.3918    0.0000 C   0  0  0  0  0  0  0  0  0  0  0  0
    1.0777    1.3515    0.0000 C   0  0  0  0  0  0  0  0  0  0  0  0
    1.7286    0.0000    0.0000 N   0  0  0  0  0  0  0  0  0  0  0  0
    1.0777   -1.3515    0.0000 N   0  0  0  0  0  0  0  0  0  0  0  0
   -0.3846   -1.6852    0.0000 N   0  0  0  0  0  0  0  0  0  0  0  0
   -1.5574   -0.7500    0.0000 N   0  0  0  0  0  0  0  0  0  0  0  0
   -1.5574    0.7500    0.0000 N   0  0  0  0  0  0  0  0  0  0  0  0
   -0.3846    1.6852    0.0000 C   0  0  0  0  0  0  0  0  0  0  0  0
   -1.7181    2.3722    0.0000 C   0  0  0  0  0  0  0  0  0  0  0  0
   -2.5668    1.1354    0.0000 C   0  0  0  0  0  0  0  0  0  0  0  0
   -2.8388    3.3692    0.0000 C   0  0  0  0  0  0  0  0  0  0  0  0
   -3.6763    4.6136    0.0000 C   0  0  0  0  0  0  0  0  0  0  0  0
   -4.1781    6.0272    0.0000 C   0  0  0  0  0  0  0  0  0  0  0  0
  1  2  1  0
  2  3  1  0
  3  4  2  0
  4  5  1  0
  5  6  2  0
  6  7  1  0
  7  8  2  0
  8  9  1  0
  9 10  2  0
 10 11  1  0
 11 12  2  0
 12 13  1  0
 13 14  2  0
 14 15  1  0
 15 16  2  0
 16 17  1  0
 17 18  2  0
 18 19  1  0
 19 20  2  0
 20 21  1  0
 21 22  2  0
 22 23  1  0
 23 24  2  0
 24 25  1  0
 25 26  2  0
 26 27  1  0
 27 28  2  0
 28 29  1  0
 29 30  1  0
 29 31  2  0
 31 32  1  0
 32 33  2  0
 33  3  1  0
 28 22  1  0
M  END
>  <Title>  (942) 
idABKFgen8

$$$$

     RDKit          2D

 12 12  0  0  0  0  0  0  0  0999 V2000
    3.9271    0.0000    0.0000 C   0  0  0  0  0  0  0  0  0  0  0  0
    2.4271    0.0000    0.0000 C   0  0  0  0  0  0  0  0  0  0  0  0
    1.9635   -1.4266    0.0000 C   0  0  0  0  0  0  0  0  0  0  0  0
    0.7500   -2.3083    0.0000 N   0  0  0  0  0  0  0  0  0  0  0  0
   -0.7500   -2.3083    0.0000 C   0  0  0  0  0  0  0  0  0  0  0  0
   -1.9635   -1.4266    0.0000 C   0  0  0  0  0  0  0  0  0  0  0  0
   -2.4271    0.0000    0.0000 C   0  0  0  0  0  0  0  0  0  0  0  0
   -1.9635    1.4266    0.0000 C   0  0  0  0  0  0  0  0  0  0  0  0
   -0.7500    2.3083    0.0000 C   0  0  0  0  0  0  0  0  0  0  0  0
    0.7500    2.3083    0.0000 C   0  0  0  0  0  0  0  0  0  0  0  0
    1.9635    1.4266    0.0000 C   0  0  0  0  0  0  0  0  0  0  0  0
    3.1771    2.3083    0.0000 O   0  0  0  0  0  0  0  0  0  0  0  0
  1  2  1  0
  2  3  2  0
  3  4  1  0
  4  5  2  0
  5  6  1  0
  6  7  2  0
  7  8  1  0
  8  9  2  0
  9 10  1  0
 10 11  2  0
 11 12  1  0
 11  2  1  0
M  END
>  <Title>  (943) 
idABKGgen8

$$$$

     RDKit          2D

 34 38  0  0  0  0  0  0  0  0999 V2000
    2.5970    6.7236    0.0000 C   0  0  0  0  0  0  0  0  0  0  0  0
    1.3835    7.6053    0.0000 O   0  0  0  0  0  0  0  0  0  0  0  0
    0.0131    6.9951    0.0000 C   0  0  0  0  0  0  0  0  0  0  0  0
   -0.1437    5.5034    0.0000 C   0  0  0  0  0  0  0  0  0  0  0  0
   -1.5140    4.8933    0.0000 C   0  0  0  0  0  0  0  0  0  0  0  0
   -2.7275    5.7749    0.0000 C   0  0  0  0  0  0  0  0  0  0  0  0
   -4.0978    5.1648    0.0000 C   0  0  0  0  0  0  0  0  0  0  0  0
   -4.2546    3.6731    0.0000 C   0  0  0  0  0  0  0  0  0  0  0  0
   -5.5537    2.9231    0.0000 N   0  0  0  0  0  0  0  0  0  0  0  0
   -5.2418    1.4558    0.0000 N   0  0  0  0  0  0  0  0  0  0  0  0
   -3.7500    1.2990    0.0000 N   0  0  0  0  0  0  0  0  0  0  0  0
   -3.1399    2.6694    0.0000 N   0  0  0  0  0  0  0  0  0  0  0  0
   -1.6727    2.9812    0.0000 C   0  0  0  0  0  0  0  0  0  0  0  0
   -1.0626    4.3515    0.0000 C   0  0  0  0  0  0  0  0  0  0  0  0
    0.4292    4.1947    0.0000 C   0  0  0  0  0  0  0  0  0  0  0  0
    0.7411    2.7275    0.0000 C   0  0  0  0  0  0  0  0  0  0  0  0
    2.1114    2.1174    0.0000 C   0  0  0  0  0  0  0  0  0  0  0  0
    2.2682    0.6256    0.0000 O   0  0  0  0  0  0  0  0  0  0  0  0
    3.3249    2.9991    0.0000 N   0  0  0  0  0  0  0  0  0  0  0  0
    4.6952    2.3890    0.0000 C   0  0  0  0  0  0  0  0  0  0  0  0
    5.0071    0.9218    0.0000 N   0  0  0  0  0  0  0  0  0  0  0  0
    6.4989    0.7650    0.0000 N   0  0  0  0  0  0  0  0  0  0  0  0
    7.1090    2.1353    0.0000 N   0  0  0  0  0  0  0  0  0  0  0  0
    5.9943    3.1390    0.0000 N   0  0  0  0  0  0  0  0  0  0  0  0
    6.1511    4.6308    0.0000 C   0  0  0  0  0  0  0  0  0  0  0  0
    4.9375    5.5125    0.0000 C   0  0  0  0  0  0  0  0  0  0  0  0
    5.0943    7.0042    0.0000 C   0  0  0  0  0  0  0  0  0  0  0  0
    6.4647    7.6143    0.0000 C   0  0  0  0  0  0  0  0  0  0  0  0
    7.6782    6.7327    0.0000 C   0  0  0  0  0  0  0  0  0  0  0  0
    7.5214    5.2409    0.0000 C   0  0  0  0  0  0  0  0  0  0  0  0
   -0.5580    1.9775    0.0000 N   0  0  0  0  0  0  0  0  0  0  0  0
   -2.5707    7.2667    0.0000 N   0  0  0  0  0  0  0  0  0  0  0  0
   -1.2004    7.8768    0.0000 C   0  0  0  0  0  0  0  0  0  0  0  0
   -1.0436    9.3686    0.0000 O   0  0  0  0  0  0  0  0  0  0  0  0
  1  2  1  0
  2  3  1  0
  3  4  2  0
  4  5  1  0
  5  6  2  0
  6  7  1  0
  7  8  1  0
  8  9  2  0
  9 10  1  0
 10 11  2  0
 11 12  1  0
 12 13  1  0
 13 14  1  0
 14 15  2  0
 15 16  1  0
 16 17  1  0
 17 18  2  0
 17 19  1  0
 19 20  1  0
 20 21  2  0
 21 22  1  0
 22 23  2  0
 23 24  1  0
 24 25  1  0
 25 26  2  0
 26 27  1  0
 27 28  2  0
 28 29  1  0
 29 30  2  0
 16 31  1  0
  6 32  1  0
 32 33  1  0
 33 34  2  0
 33  3  1  0
 12  8  1  0
 31 13  1  0
 24 20  1  0
 30 25  1  0
M  END
>  <Title>  (944) 
idABKHgen8

$$$$

     RDKit          2D

 32 36  0  0  0  0  0  0  0  0999 V2000
    3.7500    1.2990    0.0000 C   0  0  0  0  0  0  0  0  0  0  0  0
    3.0000    0.0000    0.0000 O   0  0  0  0  0  0  0  0  0  0  0  0
    1.5000    0.0000    0.0000 C   0  0  0  0  0  0  0  0  0  0  0  0
    0.7500    1.2990    0.0000 C   0  0  0  0  0  0  0  0  0  0  0  0
   -0.7500    1.2990    0.0000 C   0  0  0  0  0  0  0  0  0  0  0  0
   -1.5000    0.0000    0.0000 C   0  0  0  0  0  0  0  0  0  0  0  0
   -3.0000    0.0000    0.0000 C   0  0  0  0  0  0  0  0  0  0  0  0
   -3.8817   -1.2135    0.0000 N   0  0  0  0  0  0  0  0  0  0  0  0
   -5.3083   -0.7500    0.0000 N   0  0  0  0  0  0  0  0  0  0  0  0
   -5.3083    0.7500    0.0000 N   0  0  0  0  0  0  0  0  0  0  0  0
   -3.8817    1.2135    0.0000 N   0  0  0  0  0  0  0  0  0  0  0  0
   -3.4182    2.6401    0.0000 C   0  0  0  0  0  0  0  0  0  0  0  0
   -1.9509    2.9520    0.0000 C   0  0  0  0  0  0  0  0  0  0  0  0
   -1.4874    4.3786    0.0000 C   0  0  0  0  0  0  0  0  0  0  0  0
   -2.4911    5.4933    0.0000 C   0  0  0  0  0  0  0  0  0  0  0  0
   -2.0276    6.9199    0.0000 C   0  0  0  0  0  0  0  0  0  0  0  0
   -0.5604    7.2317    0.0000 C   0  0  0  0  0  0  0  0  0  0  0  0
   -0.0968    8.6583    0.0000 C   0  0  0  0  0  0  0  0  0  0  0  0
   -1.1005    9.7730    0.0000 C   0  0  0  0  0  0  0  0  0  0  0  0
   -0.6370   11.1996    0.0000 C   0  0  0  0  0  0  0  0  0  0  0  0
    0.8302   11.5115    0.0000 C   0  0  0  0  0  0  0  0  0  0  0  0
    1.2937   12.9381    0.0000 C   0  0  0  0  0  0  0  0  0  0  0  0
    0.2901   14.0528    0.0000 C   0  0  0  0  0  0  0  0  0  0  0  0
   -1.1772   13.7409    0.0000 C   0  0  0  0  0  0  0  0  0  0  0  0
   -1.6407   12.3143    0.0000 C   0  0  0  0  0  0  0  0  0  0  0  0
   -2.5677    9.4612    0.0000 C   0  0  0  0  0  0  0  0  0  0  0  0
   -3.0313    8.0346    0.0000 C   0  0  0  0  0  0  0  0  0  0  0  0
   -3.9583    5.1814    0.0000 C   0  0  0  0  0  0  0  0  0  0  0  0
   -4.4218    3.7548    0.0000 N   0  0  0  0  0  0  0  0  0  0  0  0
   -0.7500   -1.2990    0.0000 C   0  0  0  0  0  0  0  0  0  0  0  0
   -1.5000   -2.5981    0.0000 O   0  0  0  0  0  0  0  0  0  0  0  0
    0.7500   -1.2990    0.0000 N   0  0  0  0  0  0  0  0  0  0  0  0
  1  2  1  0
  2  3  1  0
  3  4  2  0
  4  5  1  0
  5  6  2  0
  6  7  1  0
  7  8  2  0
  8  9  1  0
  9 10  2  0
 10 11  1  0
 11 12  1  0
 12 13  2  0
 13 14  1  0
 14 15  2  0
 15 16  1  0
 16 17  2  0
 17 18  1  0
 18 19  2  0
 19 20  1  0
 20 21  2  0
 21 22  1  0
 22 23  2  0
 23 24  1  0
 24 25  2  0
 19 26  1  0
 26 27  2  0
 15 28  1  0
 28 29  1  0
  6 30  1  0
 30 31  2  0
 30 32  1  0
 32  3  1  0
 11  7  1  0
 29 12  1  0
 27 16  1  0
 25 20  1  0
M  END
>  <Title>  (945) 
idABKIgen8

$$$$

     RDKit          2D

 47 53  0  0  0  0  0  0  0  0999 V2000
    4.2098   -1.2990    0.0000 C   0  0  0  0  0  0  0  0  0  0  0  0
    3.4598   -0.0000    0.0000 O   0  0  0  0  0  0  0  0  0  0  0  0
    1.9598    0.0000    0.0000 C   0  0  0  0  0  0  0  0  0  0  0  0
    1.3858   -1.3858    0.0000 C   0  0  0  0  0  0  0  0  0  0  0  0
   -0.0000   -1.9598    0.0000 C   0  0  0  0  0  0  0  0  0  0  0  0
   -1.3858   -1.3858    0.0000 C   0  0  0  0  0  0  0  0  0  0  0  0
   -1.9598    0.0000    0.0000 C   0  0  0  0  0  0  0  0  0  0  0  0
   -1.3858    1.3858    0.0000 C   0  0  0  0  0  0  0  0  0  0  0  0
   -2.4465    2.4465    0.0000 C   0  0  0  0  0  0  0  0  0  0  0  0
   -3.8954    2.0583    0.0000 O   0  0  0  0  0  0  0  0  0  0  0  0
   -2.0583    3.8954    0.0000 N   0  0  0  0  0  0  0  0  0  0  0  0
   -3.1189    4.9560    0.0000 C   0  0  0  0  0  0  0  0  0  0  0  0
   -4.6004    4.7214    0.0000 N   0  0  0  0  0  0  0  0  0  0  0  0
   -5.2814    6.0579    0.0000 N   0  0  0  0  0  0  0  0  0  0  0  0
   -4.2208    7.1185    0.0000 N   0  0  0  0  0  0  0  0  0  0  0  0
   -2.8843    6.4376    0.0000 N   0  0  0  0  0  0  0  0  0  0  0  0
   -1.5477    7.1185    0.0000 C   0  0  0  0  0  0  0  0  0  0  0  0
   -0.2897    6.3016    0.0000 C   0  0  0  0  0  0  0  0  0  0  0  0
    1.0468    6.9826    0.0000 C   0  0  0  0  0  0  0  0  0  0  0  0
    1.1253    8.4805    0.0000 C   0  0  0  0  0  0  0  0  0  0  0  0
    2.4618    9.1615    0.0000 C   0  0  0  0  0  0  0  0  0  0  0  0
    2.6964   10.6430    0.0000 C   0  0  0  0  0  0  0  0  0  0  0  0
    4.1780   10.8777    0.0000 N   0  0  0  0  0  0  0  0  0  0  0  0
    4.8589    9.5412    0.0000 N   0  0  0  0  0  0  0  0  0  0  0  0
    3.7983    8.4805    0.0000 N   0  0  0  0  0  0  0  0  0  0  0  0
    4.0329    6.9990    0.0000 N   0  0  0  0  0  0  0  0  0  0  0  0
    2.8672    6.0550    0.0000 N   0  0  0  0  0  0  0  0  0  0  0  0
    3.1019    4.5735    0.0000 N   0  0  0  0  0  0  0  0  0  0  0  0
    4.5022    4.0359    0.0000 N   0  0  0  0  0  0  0  0  0  0  0  0
    5.6680    4.9799    0.0000 N   0  0  0  0  0  0  0  0  0  0  0  0
    5.4333    6.4614    0.0000 N   0  0  0  0  0  0  0  0  0  0  0  0
    6.5990    7.4054    0.0000 C   0  0  0  0  0  0  0  0  0  0  0  0
    6.3644    8.8869    0.0000 C   0  0  0  0  0  0  0  0  0  0  0  0
    7.5301    9.8309    0.0000 C   0  0  0  0  0  0  0  0  0  0  0  0
    8.9305    9.2934    0.0000 C   0  0  0  0  0  0  0  0  0  0  0  0
    9.1651    7.8118    0.0000 N   0  0  0  0  0  0  0  0  0  0  0  0
    7.9994    6.8679    0.0000 C   0  0  0  0  0  0  0  0  0  0  0  0
    8.2341    5.3863    0.0000 C   0  0  0  0  0  0  0  0  0  0  0  0
    9.6344    4.8488    0.0000 C   0  0  0  0  0  0  0  0  0  0  0  0
    9.8691    3.3672    0.0000 C   0  0  0  0  0  0  0  0  0  0  0  0
    8.7034    2.4233    0.0000 C   0  0  0  0  0  0  0  0  0  0  0  0
    7.3030    2.9608    0.0000 C   0  0  0  0  0  0  0  0  0  0  0  0
    7.0683    4.4423    0.0000 C   0  0  0  0  0  0  0  0  0  0  0  0
   -0.1327    9.2975    0.0000 C   0  0  0  0  0  0  0  0  0  0  0  0
   -1.4692    8.6165    0.0000 C   0  0  0  0  0  0  0  0  0  0  0  0
    0.0000    1.9598    0.0000 C   0  0  0  0  0  0  0  0  0  0  0  0
    1.3858    1.3858    0.0000 C   0  0  0  0  0  0  0  0  0  0  0  0
  1  2  1  0
  2  3  1  0
  3  4  2  0
  4  5  1  0
  5  6  2  0
  6  7  1  0
  7  8  2  0
  8  9  1  0
  9 10  2  0
  9 11  1  0
 11 12  1  0
 12 13  2  0
 13 14  1  0
 14 15  2  0
 15 16  1  0
 16 17  1  0
 17 18  2  0
 18 19  1  0
 19 20  2  0
 20 21  1  0
 21 22  2  0
 22 23  1  0
 23 24  2  0
 24 25  1  0
 25 26  1  0
 26 27  1  0
 27 28  2  0
 28 29  1  0
 29 30  2  0
 30 31  1  0
 31 32  1  0
 32 33  2  0
 33 34  1  0
 34 35  2  0
 35 36  1  0
 36 37  2  0
 37 38  1  0
 38 39  2  0
 39 40  1  0
 40 41  2  0
 41 42  1  0
 42 43  2  0
 20 44  1  0
 44 45  2  0
  8 46  1  0
 46 47  2  0
 47  3  1  0
 16 12  1  0
 45 17  1  0
 25 21  1  0
 31 26  1  0
 37 32  1  0
 43 38  1  0
M  END
>  <Title>  (946) 
idABKJgen8

$$$$

     RDKit          2D

 10 10  0  0  0  0  0  0  0  0999 V2000
    4.2098   -1.2990    0.0000 O   0  0  0  0  0  0  0  0  0  0  0  0
    3.4598   -0.0000    0.0000 C   0  0  0  0  0  0  0  0  0  0  0  0
    1.9598    0.0000    0.0000 C   0  0  0  0  0  0  0  0  0  0  0  0
    1.3858   -1.3858    0.0000 C   0  0  0  0  0  0  0  0  0  0  0  0
   -0.0000   -1.9598    0.0000 C   0  0  0  0  0  0  0  0  0  0  0  0
   -1.3858   -1.3858    0.0000 C   0  0  0  0  0  0  0  0  0  0  0  0
   -1.9598    0.0000    0.0000 C   0  0  0  0  0  0  0  0  0  0  0  0
   -1.3858    1.3858    0.0000 C   0  0  0  0  0  0  0  0  0  0  0  0
    0.0000    1.9598    0.0000 C   0  0  0  0  0  0  0  0  0  0  0  0
    1.3858    1.3858    0.0000 C   0  0  0  0  0  0  0  0  0  0  0  0
  1  2  1  0
  2  3  1  0
  3  4  2  0
  4  5  1  0
  5  6  2  0
  6  7  1  0
  7  8  2  0
  8  9  1  0
  9 10  2  0
 10  3  1  0
M  END
>  <Title>  (947) 
idABKKgen8

$$$$

     RDKit          2D

 21 23  0  0  0  0  0  0  0  0999 V2000
    3.7500    1.2990    0.0000 C   0  0  0  0  0  0  0  0  0  0  0  0
    3.0000    0.0000    0.0000 O   0  0  0  0  0  0  0  0  0  0  0  0
    1.5000    0.0000    0.0000 C   0  0  0  0  0  0  0  0  0  0  0  0
    0.7500    1.2990    0.0000 C   0  0  0  0  0  0  0  0  0  0  0  0
   -0.7500    1.2990    0.0000 C   0  0  0  0  0  0  0  0  0  0  0  0
   -1.5000    0.0000    0.0000 C   0  0  0  0  0  0  0  0  0  0  0  0
   -3.0000    0.0000    0.0000 C   0  0  0  0  0  0  0  0  0  0  0  0
   -3.8817   -1.2135    0.0000 N   0  0  0  0  0  0  0  0  0  0  0  0
   -5.3083   -0.7500    0.0000 N   0  0  0  0  0  0  0  0  0  0  0  0
   -5.3083    0.7500    0.0000 N   0  0  0  0  0  0  0  0  0  0  0  0
   -3.8817    1.2135    0.0000 N   0  0  0  0  0  0  0  0  0  0  0  0
   -3.4182    2.6401    0.0000 C   0  0  0  0  0  0  0  0  0  0  0  0
   -1.9509    2.9520    0.0000 C   0  0  0  0  0  0  0  0  0  0  0  0
   -1.4874    4.3786    0.0000 C   0  0  0  0  0  0  0  0  0  0  0  0
   -2.4911    5.4933    0.0000 C   0  0  0  0  0  0  0  0  0  0  0  0
   -2.0276    6.9199    0.0000 C   0  0  0  0  0  0  0  0  0  0  0  0
   -3.9583    5.1814    0.0000 C   0  0  0  0  0  0  0  0  0  0  0  0
   -4.4218    3.7548    0.0000 C   0  0  0  0  0  0  0  0  0  0  0  0
   -0.7500   -1.2990    0.0000 C   0  0  0  0  0  0  0  0  0  0  0  0
   -1.5000   -2.5981    0.0000 O   0  0  0  0  0  0  0  0  0  0  0  0
    0.7500   -1.2990    0.0000 N   0  0  0  0  0  0  0  0  0  0  0  0
  1  2  1  0
  2  3  1  0
  3  4  2  0
  4  5  1  0
  5  6  2  0
  6  7  1  0
  7  8  2  0
  8  9  1  0
  9 10  2  0
 10 11  1  0
 11 12  1  0
 12 13  2  0
 13 14  1  0
 14 15  2  0
 15 16  1  0
 15 17  1  0
 17 18  2  0
  6 19  1  0
 19 20  2  0
 19 21  1  0
 21  3  1  0
 11  7  1  0
 18 12  1  0
M  END
>  <Title>  (948) 
idABKLgen8

$$$$

     RDKit          2D

 42 47  0  0  0  0  0  0  0  0999 V2000
    3.0000    0.0000    0.0000 C   0  0  0  0  0  0  0  0  0  0  0  0
    1.5000    0.0000    0.0000 C   0  0  0  0  0  0  0  0  0  0  0  0
    0.7500    1.2990    0.0000 C   0  0  0  0  0  0  0  0  0  0  0  0
   -0.7500    1.2990    0.0000 C   0  0  0  0  0  0  0  0  0  0  0  0
   -1.5000    0.0000    0.0000 C   0  0  0  0  0  0  0  0  0  0  0  0
   -3.0000    0.0000    0.0000 C   0  0  0  0  0  0  0  0  0  0  0  0
   -3.7500   -1.2990    0.0000 O   0  0  0  0  0  0  0  0  0  0  0  0
   -3.7500    1.2990    0.0000 N   0  0  0  0  0  0  0  0  0  0  0  0
   -5.2500    1.2990    0.0000 C   0  0  0  0  0  0  0  0  0  0  0  0
   -6.1317    0.0855    0.0000 N   0  0  0  0  0  0  0  0  0  0  0  0
   -7.5583    0.5490    0.0000 N   0  0  0  0  0  0  0  0  0  0  0  0
   -7.5583    2.0490    0.0000 N   0  0  0  0  0  0  0  0  0  0  0  0
   -6.1317    2.5126    0.0000 N   0  0  0  0  0  0  0  0  0  0  0  0
   -5.6682    3.9391    0.0000 C   0  0  0  0  0  0  0  0  0  0  0  0
   -6.5498    5.1527    0.0000 C   0  0  0  0  0  0  0  0  0  0  0  0
   -5.6682    6.3662    0.0000 N   0  0  0  0  0  0  0  0  0  0  0  0
   -4.2416    5.9027    0.0000 N   0  0  0  0  0  0  0  0  0  0  0  0
   -4.2416    4.4027    0.0000 N   0  0  0  0  0  0  0  0  0  0  0  0
   -3.0280    3.5210    0.0000 C   0  0  0  0  0  0  0  0  0  0  0  0
   -3.0280    2.0210    0.0000 C   0  0  0  0  0  0  0  0  0  0  0  0
   -1.6015    1.5575    0.0000 C   0  0  0  0  0  0  0  0  0  0  0  0
   -0.7198    2.7710    0.0000 C   0  0  0  0  0  0  0  0  0  0  0  0
    0.7802    2.7710    0.0000 C   0  0  0  0  0  0  0  0  0  0  0  0
    1.5302    1.4720    0.0000 O   0  0  0  0  0  0  0  0  0  0  0  0
    1.5302    4.0700    0.0000 N   0  0  0  0  0  0  0  0  0  0  0  0
    3.0302    4.0700    0.0000 C   0  0  0  0  0  0  0  0  0  0  0  0
    3.7802    2.7710    0.0000 C   0  0  0  0  0  0  0  0  0  0  0  0
    5.2802    2.7710    0.0000 N   0  0  0  0  0  0  0  0  0  0  0  0
    6.0302    4.0700    0.0000 N   0  0  0  0  0  0  0  0  0  0  0  0
    5.2802    5.3691    0.0000 N   0  0  0  0  0  0  0  0  0  0  0  0
    3.7802    5.3691    0.0000 N   0  0  0  0  0  0  0  0  0  0  0  0
    3.0302    6.6681    0.0000 C   0  0  0  0  0  0  0  0  0  0  0  0
    3.7802    7.9671    0.0000 C   0  0  0  0  0  0  0  0  0  0  0  0
    3.0302    9.2662    0.0000 C   0  0  0  0  0  0  0  0  0  0  0  0
    1.5302    9.2662    0.0000 C   0  0  0  0  0  0  0  0  0  0  0  0
    0.7802    7.9671    0.0000 C   0  0  0  0  0  0  0  0  0  0  0  0
    1.5302    6.6681    0.0000 C   0  0  0  0  0  0  0  0  0  0  0  0
   -1.6015    3.9845    0.0000 C   0  0  0  0  0  0  0  0  0  0  0  0
   -1.1379    5.4111    0.0000 O   0  0  0  0  0  0  0  0  0  0  0  0
   -0.7500   -1.2990    0.0000 N   0  0  0  0  0  0  0  0  0  0  0  0
    0.7500   -1.2990    0.0000 C   0  0  0  0  0  0  0  0  0  0  0  0
    1.5000   -2.5981    0.0000 O   0  0  0  0  0  0  0  0  0  0  0  0
  1  2  1  0
  2  3  2  0
  3  4  1  0
  4  5  2  0
  5  6  1  0
  6  7  2  0
  6  8  1  0
  8  9  1  0
  9 10  2  0
 10 11  1  0
 11 12  2  0
 12 13  1  0
 13 14  1  0
 14 15  2  0
 15 16  1  0
 16 17  2  0
 17 18  1  0
 18 19  1  0
 19 20  2  0
 20 21  1  0
 21 22  2  0
 22 23  1  0
 23 24  2  0
 23 25  1  0
 25 26  1  0
 26 27  1  0
 27 28  1  0
 28 29  1  0
 29 30  2  0
 30 31  1  0
 31 32  1  0
 32 33  2  0
 33 34  1  0
 34 35  2  0
 35 36  1  0
 36 37  2  0
 22 38  1  0
 38 39  2  0
  5 40  1  0
 40 41  1  0
 41 42  2  0
 41  2  1  0
 13  9  1  0
 18 14  1  0
 38 19  1  0
 31 26  1  0
 37 32  1  0
M  END
>  <Title>  (949) 
idABKMgen8

$$$$

     RDKit          2D

 13 13  0  0  0  0  0  0  0  0999 V2000
    3.9271    0.0000    0.0000 C   0  0  0  0  0  0  0  0  0  0  0  0
    2.4271    0.0000    0.0000 C   0  0  0  0  0  0  0  0  0  0  0  0
    1.9635   -1.4266    0.0000 C   0  0  0  0  0  0  0  0  0  0  0  0
    0.7500   -2.3083    0.0000 C   0  0  0  0  0  0  0  0  0  0  0  0
   -0.7500   -2.3083    0.0000 C   0  0  0  0  0  0  0  0  0  0  0  0
   -1.9635   -1.4266    0.0000 C   0  0  0  0  0  0  0  0  0  0  0  0
   -2.4271    0.0000    0.0000 C   0  0  0  0  0  0  0  0  0  0  0  0
   -3.9271    0.0000    0.0000 F   0  0  0  0  0  0  0  0  0  0  0  0
   -1.9635    1.4266    0.0000 C   0  0  0  0  0  0  0  0  0  0  0  0
   -3.1771    2.3083    0.0000 C   0  0  0  0  0  0  0  0  0  0  0  0
   -0.7500    2.3083    0.0000 N   0  0  0  0  0  0  0  0  0  0  0  0
    0.7500    2.3083    0.0000 N   0  0  0  0  0  0  0  0  0  0  0  0
    1.9635    1.4266    0.0000 N   0  0  0  0  0  0  0  0  0  0  0  0
  1  2  1  0
  2  3  2  0
  3  4  1  0
  4  5  2  0
  5  6  1  0
  6  7  2  0
  7  8  1  0
  7  9  1  0
  9 10  1  0
  9 11  2  0
 11 12  1  0
 12 13  2  0
 13  2  1  0
M  END
>  <Title>  (950) 
idABKNgen8

$$$$

     RDKit          2D

 29 29  0  0  0  0  0  0  0  0999 V2000
    8.4722   -1.2990    0.0000 C   0  0  0  0  0  0  0  0  0  0  0  0
    7.7222    0.0000    0.0000 C   0  0  0  0  0  0  0  0  0  0  0  0
    6.2222    0.0000    0.0000 C   0  0  0  0  0  0  0  0  0  0  0  0
    6.0414   -1.4891    0.0000 C   0  0  0  0  0  0  0  0  0  0  0  0
    5.5095   -2.8916    0.0000 C   0  0  0  0  0  0  0  0  0  0  0  0
    4.6574   -4.1261    0.0000 C   0  0  0  0  0  0  0  0  0  0  0  0
    3.5346   -5.1207    0.0000 C   0  0  0  0  0  0  0  0  0  0  0  0
    2.2064   -5.8178    0.0000 C   0  0  0  0  0  0  0  0  0  0  0  0
    0.7500   -6.1768    0.0000 C   0  0  0  0  0  0  0  0  0  0  0  0
   -0.7500   -6.1768    0.0000 C   0  0  0  0  0  0  0  0  0  0  0  0
   -2.2064   -5.8178    0.0000 C   0  0  0  0  0  0  0  0  0  0  0  0
   -3.5346   -5.1207    0.0000 C   0  0  0  0  0  0  0  0  0  0  0  0
   -4.6574   -4.1261    0.0000 C   0  0  0  0  0  0  0  0  0  0  0  0
   -5.5095   -2.8916    0.0000 C   0  0  0  0  0  0  0  0  0  0  0  0
   -6.0414   -1.4891    0.0000 C   0  0  0  0  0  0  0  0  0  0  0  0
   -6.2222    0.0000    0.0000 C   0  0  0  0  0  0  0  0  0  0  0  0
   -6.0414    1.4891    0.0000 C   0  0  0  0  0  0  0  0  0  0  0  0
   -5.5095    2.8916    0.0000 C   0  0  0  0  0  0  0  0  0  0  0  0
   -4.6574    4.1261    0.0000 C   0  0  0  0  0  0  0  0  0  0  0  0
   -3.5346    5.1207    0.0000 C   0  0  0  0  0  0  0  0  0  0  0  0
   -2.2064    5.8178    0.0000 C   0  0  0  0  0  0  0  0  0  0  0  0
   -0.7500    6.1768    0.0000 C   0  0  0  0  0  0  0  0  0  0  0  0
    0.7500    6.1768    0.0000 C   0  0  0  0  0  0  0  0  0  0  0  0
    2.2064    5.8178    0.0000 C   0  0  0  0  0  0  0  0  0  0  0  0
    3.5346    5.1207    0.0000 C   0  0  0  0  0  0  0  0  0  0  0  0
    4.6574    4.1261    0.0000 C   0  0  0  0  0  0  0  0  0  0  0  0
    5.5095    2.8916    0.0000 C   0  0  0  0  0  0  0  0  0  0  0  0
    6.0414    1.4891    0.0000 C   0  0  0  0  0  0  0  0  0  0  0  0
    7.4978    1.8480    0.0000 O   0  0  0  0  0  0  0  0  0  0  0  0
  1  2  1  0
  2  3  1  0
  3  4  2  0
  4  5  1  0
  5  6  2  0
  6  7  1  0
  7  8  2  0
  8  9  1  0
  9 10  2  0
 10 11  1  0
 11 12  2  0
 12 13  1  0
 13 14  2  0
 14 15  1  0
 15 16  2  0
 16 17  1  0
 17 18  2  0
 18 19  1  0
 19 20  2  0
 20 21  1  0
 21 22  2  0
 22 23  1  0
 23 24  2  0
 24 25  1  0
 25 26  2  0
 26 27  1  0
 27 28  2  0
 28 29  1  0
 28  3  1  0
M  END
>  <Title>  (951) 
idABKOgen8

$$$$

     RDKit          2D

 15 15  0  0  0  0  0  0  0  0999 V2000
    4.8705    0.0000    0.0000 C   0  0  0  0  0  0  0  0  0  0  0  0
    3.3705    0.0000    0.0000 C   0  0  0  0  0  0  0  0  0  0  0  0
    3.0367   -1.4624    0.0000 C   0  0  0  0  0  0  0  0  0  0  0  0
    2.1015   -2.6351    0.0000 C   0  0  0  0  0  0  0  0  0  0  0  0
    0.7500   -3.2860    0.0000 C   0  0  0  0  0  0  0  0  0  0  0  0
   -0.7500   -3.2860    0.0000 C   0  0  0  0  0  0  0  0  0  0  0  0
   -2.1015   -2.6351    0.0000 C   0  0  0  0  0  0  0  0  0  0  0  0
   -3.0367   -1.4624    0.0000 C   0  0  0  0  0  0  0  0  0  0  0  0
   -3.3705    0.0000    0.0000 C   0  0  0  0  0  0  0  0  0  0  0  0
   -3.0367    1.4624    0.0000 C   0  0  0  0  0  0  0  0  0  0  0  0
   -2.1015    2.6351    0.0000 C   0  0  0  0  0  0  0  0  0  0  0  0
   -0.7500    3.2860    0.0000 C   0  0  0  0  0  0  0  0  0  0  0  0
    0.7500    3.2860    0.0000 C   0  0  0  0  0  0  0  0  0  0  0  0
    2.1015    2.6351    0.0000 C   0  0  0  0  0  0  0  0  0  0  0  0
    3.0367    1.4624    0.0000 C   0  0  0  0  0  0  0  0  0  0  0  0
  1  2  1  0
  2  3  2  0
  3  4  1  0
  4  5  2  0
  5  6  2  0
  6  7  2  0
  7  8  1  0
  8  9  2  0
  9 10  1  0
 10 11  2  0
 11 12  1  0
 12 13  2  0
 13 14  1  0
 14 15  2  0
 15  2  1  0
M  END
>  <Title>  (952) 
idABKPgen8

$$$$

     RDKit          2D

 12 13  0  0  0  0  0  0  0  0999 V2000
   -1.7979    5.5335    0.0000 C   0  0  0  0  0  0  0  0  0  0  0  0
   -1.3344    4.1069    0.0000 C   0  0  0  0  0  0  0  0  0  0  0  0
    0.1520    3.9056    0.0000 C   0  0  0  0  0  0  0  0  0  0  0  0
    0.9214    2.6179    0.0000 C   0  0  0  0  0  0  0  0  0  0  0  0
    0.3943    1.2135    0.0000 C   0  0  0  0  0  0  0  0  0  0  0  0
    1.2760    0.0000    0.0000 C   0  0  0  0  0  0  0  0  0  0  0  0
    0.3943   -1.2135    0.0000 C   0  0  0  0  0  0  0  0  0  0  0  0
   -1.0323   -0.7500    0.0000 C   0  0  0  0  0  0  0  0  0  0  0  0
   -1.0323    0.7500    0.0000 C   0  0  0  0  0  0  0  0  0  0  0  0
   -2.2841    1.5763    0.0000 C   0  0  0  0  0  0  0  0  0  0  0  0
   -3.5718    0.8070    0.0000 O   0  0  0  0  0  0  0  0  0  0  0  0
   -2.4186    3.0703    0.0000 N   0  0  0  0  0  0  0  0  0  0  0  0
  1  2  1  0
  2  3  2  0
  3  4  1  0
  4  5  2  0
  5  6  1  0
  6  7  2  0
  7  8  1  0
  8  9  2  0
  9 10  1  0
 10 11  2  0
 10 12  1  0
 12  2  1  0
  9  5  1  0
M  END
>  <Title>  (953) 
idABKQgen8

$$$$

     RDKit          2D

 43 49  0  0  0  0  0  0  0  0999 V2000
    3.0000    0.0000    0.0000 C   0  0  0  0  0  0  0  0  0  0  0  0
    1.5000    0.0000    0.0000 C   0  0  0  0  0  0  0  0  0  0  0  0
    0.7500   -1.2990    0.0000 C   0  0  0  0  0  0  0  0  0  0  0  0
   -0.7500   -1.2990    0.0000 C   0  0  0  0  0  0  0  0  0  0  0  0
   -1.5000    0.0000    0.0000 C   0  0  0  0  0  0  0  0  0  0  0  0
   -3.0000    0.0000    0.0000 N   0  0  0  0  0  0  0  0  0  0  0  0
   -3.7500    1.2990    0.0000 N   0  0  0  0  0  0  0  0  0  0  0  0
   -5.2500    1.2990    0.0000 N   0  0  0  0  0  0  0  0  0  0  0  0
   -6.0000    0.0000    0.0000 N   0  0  0  0  0  0  0  0  0  0  0  0
   -5.2500   -1.2990    0.0000 N   0  0  0  0  0  0  0  0  0  0  0  0
   -3.7500   -1.2990    0.0000 N   0  0  0  0  0  0  0  0  0  0  0  0
   -3.0000   -2.5981    0.0000 C   0  0  0  0  0  0  0  0  0  0  0  0
   -1.5082   -2.7549    0.0000 C   0  0  0  0  0  0  0  0  0  0  0  0
   -1.1963   -4.2221    0.0000 C   0  0  0  0  0  0  0  0  0  0  0  0
   -2.4954   -4.9721    0.0000 C   0  0  0  0  0  0  0  0  0  0  0  0
   -2.6522   -6.4639    0.0000 C   0  0  0  0  0  0  0  0  0  0  0  0
   -1.5375   -7.4676    0.0000 C   0  0  0  0  0  0  0  0  0  0  0  0
   -2.1476   -8.8379    0.0000 N   0  0  0  0  0  0  0  0  0  0  0  0
   -3.6394   -8.6811    0.0000 N   0  0  0  0  0  0  0  0  0  0  0  0
   -3.9512   -7.2139    0.0000 N   0  0  0  0  0  0  0  0  0  0  0  0
   -5.3215   -6.6038    0.0000 C   0  0  0  0  0  0  0  0  0  0  0  0
   -5.4783   -5.1120    0.0000 C   0  0  0  0  0  0  0  0  0  0  0  0
   -6.8486   -4.5019    0.0000 C   0  0  0  0  0  0  0  0  0  0  0  0
   -8.0622   -5.3836    0.0000 C   0  0  0  0  0  0  0  0  0  0  0  0
   -7.9054   -6.8753    0.0000 N   0  0  0  0  0  0  0  0  0  0  0  0
   -6.5351   -7.4854    0.0000 C   0  0  0  0  0  0  0  0  0  0  0  0
   -6.3783   -8.9772    0.0000 C   0  0  0  0  0  0  0  0  0  0  0  0
   -5.0080   -9.5873    0.0000 C   0  0  0  0  0  0  0  0  0  0  0  0
   -4.8512  -11.0791    0.0000 C   0  0  0  0  0  0  0  0  0  0  0  0
   -6.0647  -11.9608    0.0000 C   0  0  0  0  0  0  0  0  0  0  0  0
   -7.4350  -11.3507    0.0000 C   0  0  0  0  0  0  0  0  0  0  0  0
   -7.5918   -9.8589    0.0000 C   0  0  0  0  0  0  0  0  0  0  0  0
   -8.9621   -9.2488    0.0000 C   0  0  0  0  0  0  0  0  0  0  0  0
  -10.1756  -10.1305    0.0000 C   0  0  0  0  0  0  0  0  0  0  0  0
  -11.5460   -9.5204    0.0000 C   0  0  0  0  0  0  0  0  0  0  0  0
  -11.7027   -8.0286    0.0000 C   0  0  0  0  0  0  0  0  0  0  0  0
  -10.4892   -7.1469    0.0000 C   0  0  0  0  0  0  0  0  0  0  0  0
   -9.1189   -7.7570    0.0000 C   0  0  0  0  0  0  0  0  0  0  0  0
   -3.6101   -3.9684    0.0000 C   0  0  0  0  0  0  0  0  0  0  0  0
   -5.0773   -4.2803    0.0000 O   0  0  0  0  0  0  0  0  0  0  0  0
   -0.7500    1.2990    0.0000 N   0  0  0  0  0  0  0  0  0  0  0  0
    0.7500    1.2990    0.0000 C   0  0  0  0  0  0  0  0  0  0  0  0
    1.5000    2.5981    0.0000 O   0  0  0  0  0  0  0  0  0  0  0  0
  1  2  1  0
  2  3  2  0
  3  4  1  0
  4  5  2  0
  5  6  1  0
  6  7  1  0
  7  8  2  0
  8  9  1  0
  9 10  2  0
 10 11  1  0
 11 12  1  0
 12 13  2  0
 13 14  1  0
 14 15  2  0
 15 16  1  0
 16 17  2  0
 17 18  1  0
 18 19  2  0
 19 20  1  0
 20 21  1  0
 21 22  2  0
 22 23  1  0
 23 24  2  0
 24 25  1  0
 25 26  2  0
 26 27  1  0
 27 28  2  0
 28 29  1  0
 29 30  2  0
 30 31  1  0
 31 32  2  0
 32 33  1  0
 33 34  2  0
 34 35  1  0
 35 36  2  0
 36 37  1  0
 37 38  2  0
 15 39  1  0
 39 40  2  0
  5 41  1  0
 41 42  1  0
 42 43  2  0
 42  2  1  0
 11  6  1  0
 39 12  1  0
 20 16  1  0
 26 21  1  0
 32 27  1  0
 38 33  1  0
M  END
>  <Title>  (954) 
idABKRgen8

$$$$

     RDKit          2D

 36 40  0  0  0  0  0  0  0  0999 V2000
    3.0000    0.0000    0.0000 C   0  0  0  0  0  0  0  0  0  0  0  0
    1.5000    0.0000    0.0000 C   0  0  0  0  0  0  0  0  0  0  0  0
    0.7500    1.2990    0.0000 C   0  0  0  0  0  0  0  0  0  0  0  0
   -0.7500    1.2990    0.0000 C   0  0  0  0  0  0  0  0  0  0  0  0
   -1.5000    0.0000    0.0000 C   0  0  0  0  0  0  0  0  0  0  0  0
   -3.0000    0.0000    0.0000 C   0  0  0  0  0  0  0  0  0  0  0  0
   -3.8817   -1.2135    0.0000 N   0  0  0  0  0  0  0  0  0  0  0  0
   -5.3083   -0.7500    0.0000 N   0  0  0  0  0  0  0  0  0  0  0  0
   -5.3083    0.7500    0.0000 N   0  0  0  0  0  0  0  0  0  0  0  0
   -3.8817    1.2135    0.0000 N   0  0  0  0  0  0  0  0  0  0  0  0
   -3.4182    2.6401    0.0000 C   0  0  0  0  0  0  0  0  0  0  0  0
   -1.9509    2.9520    0.0000 C   0  0  0  0  0  0  0  0  0  0  0  0
   -1.4874    4.3786    0.0000 C   0  0  0  0  0  0  0  0  0  0  0  0
   -2.4911    5.4933    0.0000 C   0  0  0  0  0  0  0  0  0  0  0  0
   -3.9583    5.1814    0.0000 C   0  0  0  0  0  0  0  0  0  0  0  0
   -4.4218    3.7548    0.0000 C   0  0  0  0  0  0  0  0  0  0  0  0
   -5.8891    3.4430    0.0000 C   0  0  0  0  0  0  0  0  0  0  0  0
   -6.4992    2.0726    0.0000 C   0  0  0  0  0  0  0  0  0  0  0  0
   -7.9910    2.2294    0.0000 C   0  0  0  0  0  0  0  0  0  0  0  0
   -8.3028    3.6967    0.0000 C   0  0  0  0  0  0  0  0  0  0  0  0
   -9.6731    4.3068    0.0000 C   0  0  0  0  0  0  0  0  0  0  0  0
   -9.8299    5.7985    0.0000 C   0  0  0  0  0  0  0  0  0  0  0  0
  -11.2003    6.4086    0.0000 C   0  0  0  0  0  0  0  0  0  0  0  0
  -12.4138    5.5270    0.0000 C   0  0  0  0  0  0  0  0  0  0  0  0
  -13.7841    6.1371    0.0000 C   0  0  0  0  0  0  0  0  0  0  0  0
  -14.9976    5.2554    0.0000 O   0  0  0  0  0  0  0  0  0  0  0  0
  -13.9409    7.6289    0.0000 N   0  0  0  0  0  0  0  0  0  0  0  0
  -15.3112    8.2390    0.0000 O   0  0  0  0  0  0  0  0  0  0  0  0
  -12.2570    4.0352    0.0000 N   0  0  0  0  0  0  0  0  0  0  0  0
  -10.8867    3.4251    0.0000 C   0  0  0  0  0  0  0  0  0  0  0  0
  -10.7299    1.9333    0.0000 O   0  0  0  0  0  0  0  0  0  0  0  0
   -7.0038    4.4467    0.0000 C   0  0  0  0  0  0  0  0  0  0  0  0
   -6.8470    5.9384    0.0000 O   0  0  0  0  0  0  0  0  0  0  0  0
   -0.7500   -1.2990    0.0000 C   0  0  0  0  0  0  0  0  0  0  0  0
   -1.5000   -2.5981    0.0000 O   0  0  0  0  0  0  0  0  0  0  0  0
    0.7500   -1.2990    0.0000 N   0  0  0  0  0  0  0  0  0  0  0  0
  1  2  1  0
  2  3  2  0
  3  4  1  0
  4  5  2  0
  5  6  1  0
  6  7  2  0
  7  8  1  0
  8  9  2  0
  9 10  1  0
 10 11  1  0
 11 12  1  0
 12 13  1  0
 13 14  1  0
 14 15  1  0
 15 16  1  0
 16 17  1  0
 17 18  2  0
 18 19  1  0
 19 20  2  0
 20 21  1  0
 21 22  2  0
 22 23  1  0
 23 24  2  0
 24 25  1  0
 25 26  2  0
 25 27  1  0
 27 28  1  0
 24 29  1  0
 29 30  1  0
 30 31  2  0
 20 32  1  0
 32 33  2  0
  5 34  1  0
 34 35  2  0
 34 36  1  0
 36  2  1  0
 10  6  1  0
 16 11  1  0
 32 17  1  0
 30 21  1  0
M  END
>  <Title>  (955) 
idABKSgen8

$$$$

     RDKit          2D

 36 40  0  0  0  0  0  0  0  0999 V2000
    3.0000    0.0000    0.0000 C   0  0  0  0  0  0  0  0  0  0  0  0
    1.5000    0.0000    0.0000 C   0  0  0  0  0  0  0  0  0  0  0  0
    0.7500   -1.2990    0.0000 C   0  0  0  0  0  0  0  0  0  0  0  0
   -0.7500   -1.2990    0.0000 C   0  0  0  0  0  0  0  0  0  0  0  0
   -1.5000    0.0000    0.0000 C   0  0  0  0  0  0  0  0  0  0  0  0
   -3.0000    0.0000    0.0000 C   0  0  0  0  0  0  0  0  0  0  0  0
   -3.8817   -1.2135    0.0000 N   0  0  0  0  0  0  0  0  0  0  0  0
   -5.3083   -0.7500    0.0000 N   0  0  0  0  0  0  0  0  0  0  0  0
   -5.3083    0.7500    0.0000 N   0  0  0  0  0  0  0  0  0  0  0  0
   -3.8817    1.2135    0.0000 N   0  0  0  0  0  0  0  0  0  0  0  0
   -3.4182    2.6401    0.0000 C   0  0  0  0  0  0  0  0  0  0  0  0
   -1.9509    2.9520    0.0000 C   0  0  0  0  0  0  0  0  0  0  0  0
   -1.4874    4.3786    0.0000 C   0  0  0  0  0  0  0  0  0  0  0  0
   -2.4911    5.4933    0.0000 C   0  0  0  0  0  0  0  0  0  0  0  0
   -2.0276    6.9199    0.0000 C   0  0  0  0  0  0  0  0  0  0  0  0
   -3.0313    8.0346    0.0000 O   0  0  0  0  0  0  0  0  0  0  0  0
   -0.5604    7.2317    0.0000 N   0  0  0  0  0  0  0  0  0  0  0  0
   -0.0968    8.6583    0.0000 C   0  0  0  0  0  0  0  0  0  0  0  0
   -1.1005    9.7730    0.0000 O   0  0  0  0  0  0  0  0  0  0  0  0
    1.3704    8.9702    0.0000 N   0  0  0  0  0  0  0  0  0  0  0  0
    1.8339   10.3968    0.0000 C   0  0  0  0  0  0  0  0  0  0  0  0
    0.9522   11.6103    0.0000 N   0  0  0  0  0  0  0  0  0  0  0  0
    1.8339   12.8238    0.0000 N   0  0  0  0  0  0  0  0  0  0  0  0
    3.2605   12.3603    0.0000 N   0  0  0  0  0  0  0  0  0  0  0  0
    3.2605   10.8603    0.0000 N   0  0  0  0  0  0  0  0  0  0  0  0
    4.4740    9.9786    0.0000 C   0  0  0  0  0  0  0  0  0  0  0  0
    4.3172    8.4868    0.0000 C   0  0  0  0  0  0  0  0  0  0  0  0
    5.5308    7.6052    0.0000 C   0  0  0  0  0  0  0  0  0  0  0  0
    6.9011    8.2153    0.0000 C   0  0  0  0  0  0  0  0  0  0  0  0
    7.0579    9.7070    0.0000 C   0  0  0  0  0  0  0  0  0  0  0  0
    5.8443   10.5887    0.0000 C   0  0  0  0  0  0  0  0  0  0  0  0
   -3.9583    5.1814    0.0000 C   0  0  0  0  0  0  0  0  0  0  0  0
   -4.4218    3.7548    0.0000 C   0  0  0  0  0  0  0  0  0  0  0  0
   -0.7500    1.2990    0.0000 C   0  0  0  0  0  0  0  0  0  0  0  0
    0.7500    1.2990    0.0000 C   0  0  0  0  0  0  0  0  0  0  0  0
    1.5000    2.5981    0.0000 C   0  0  0  0  0  0  0  0  0  0  0  0
  1  2  1  0
  2  3  2  0
  3  4  1  0
  4  5  2  0
  5  6  1  0
  6  7  2  0
  7  8  1  0
  8  9  2  0
  9 10  1  0
 10 11  1  0
 11 12  2  0
 12 13  1  0
 13 14  2  0
 14 15  1  0
 15 16  2  0
 15 17  1  0
 17 18  1  0
 18 19  2  0
 18 20  1  0
 20 21  1  0
 21 22  2  0
 22 23  1  0
 23 24  2  0
 24 25  1  0
 25 26  1  0
 26 27  2  0
 27 28  1  0
 28 29  2  0
 29 30  1  0
 30 31  2  0
 14 32  1  0
 32 33  2  0
  5 34  1  0
 34 35  2  0
 35 36  1  0
 35  2  1  0
 10  6  1  0
 33 11  1  0
 25 21  1  0
 31 26  1  0
M  END
>  <Title>  (956) 
idABKTgen8

$$$$

     RDKit          2D

 35 40  0  0  0  0  0  0  0  0999 V2000
    3.7500   -1.2990    0.0000 C   0  0  0  0  0  0  0  0  0  0  0  0
    3.0000    0.0000    0.0000 O   0  0  0  0  0  0  0  0  0  0  0  0
    1.5000    0.0000    0.0000 C   0  0  0  0  0  0  0  0  0  0  0  0
    0.7500   -1.2990    0.0000 C   0  0  0  0  0  0  0  0  0  0  0  0
   -0.7500   -1.2990    0.0000 C   0  0  0  0  0  0  0  0  0  0  0  0
   -1.5000    0.0000    0.0000 C   0  0  0  0  0  0  0  0  0  0  0  0
   -3.0000    0.0000    0.0000 C   0  0  0  0  0  0  0  0  0  0  0  0
   -3.8817   -1.2135    0.0000 N   0  0  0  0  0  0  0  0  0  0  0  0
   -5.3083   -0.7500    0.0000 N   0  0  0  0  0  0  0  0  0  0  0  0
   -5.3083    0.7500    0.0000 N   0  0  0  0  0  0  0  0  0  0  0  0
   -3.8817    1.2135    0.0000 N   0  0  0  0  0  0  0  0  0  0  0  0
   -3.4182    2.6401    0.0000 C   0  0  0  0  0  0  0  0  0  0  0  0
   -1.9509    2.9520    0.0000 C   0  0  0  0  0  0  0  0  0  0  0  0
   -1.4874    4.3786    0.0000 C   0  0  0  0  0  0  0  0  0  0  0  0
   -2.4911    5.4933    0.0000 C   0  0  0  0  0  0  0  0  0  0  0  0
   -2.0276    6.9199    0.0000 C   0  0  0  0  0  0  0  0  0  0  0  0
   -2.9093    8.1334    0.0000 N   0  0  0  0  0  0  0  0  0  0  0  0
   -2.0276    9.3469    0.0000 N   0  0  0  0  0  0  0  0  0  0  0  0
   -0.6010    8.8834    0.0000 N   0  0  0  0  0  0  0  0  0  0  0  0
   -0.6010    7.3834    0.0000 N   0  0  0  0  0  0  0  0  0  0  0  0
    0.6125    6.5017    0.0000 C   0  0  0  0  0  0  0  0  0  0  0  0
    0.6125    5.0017    0.0000 N   0  0  0  0  0  0  0  0  0  0  0  0
    2.0391    4.5382    0.0000 N   0  0  0  0  0  0  0  0  0  0  0  0
    2.9208    5.7517    0.0000 N   0  0  0  0  0  0  0  0  0  0  0  0
    2.0391    6.9652    0.0000 N   0  0  0  0  0  0  0  0  0  0  0  0
    2.5026    8.3918    0.0000 C   0  0  0  0  0  0  0  0  0  0  0  0
    1.4989    9.5065    0.0000 C   0  0  0  0  0  0  0  0  0  0  0  0
    1.9625   10.9331    0.0000 C   0  0  0  0  0  0  0  0  0  0  0  0
    3.4297   11.2450    0.0000 C   0  0  0  0  0  0  0  0  0  0  0  0
    4.4334   10.1303    0.0000 C   0  0  0  0  0  0  0  0  0  0  0  0
    3.9699    8.7037    0.0000 C   0  0  0  0  0  0  0  0  0  0  0  0
   -3.9583    5.1814    0.0000 C   0  0  0  0  0  0  0  0  0  0  0  0
   -4.4218    3.7548    0.0000 C   0  0  0  0  0  0  0  0  0  0  0  0
   -0.7500    1.2990    0.0000 C   0  0  0  0  0  0  0  0  0  0  0  0
    0.7500    1.2990    0.0000 C   0  0  0  0  0  0  0  0  0  0  0  0
  1  2  1  0
  2  3  1  0
  3  4  2  0
  4  5  1  0
  5  6  2  0
  6  7  1  0
  7  8  2  0
  8  9  1  0
  9 10  2  0
 10 11  1  0
 11 12  1  0
 12 13  2  0
 13 14  1  0
 14 15  2  0
 15 16  1  0
 16 17  2  0
 17 18  1  0
 18 19  2  0
 19 20  1  0
 20 21  1  0
 21 22  2  0
 22 23  1  0
 23 24  2  0
 24 25  1  0
 25 26  1  0
 26 27  2  0
 27 28  1  0
 28 29  2  0
 29 30  1  0
 30 31  2  0
 15 32  1  0
 32 33  2  0
  6 34  1  0
 34 35  2  0
 35  3  1  0
 11  7  1  0
 33 12  1  0
 20 16  1  0
 25 21  1  0
 31 26  1  0
M  END
>  <Title>  (957) 
idABKUgen8

$$$$

     RDKit          2D

 48 54  0  0  0  0  0  0  0  0999 V2000
  -10.1624    4.2767    0.0000 C   0  0  0  0  0  0  0  0  0  0  0  0
   -8.9488    3.3950    0.0000 C   0  0  0  0  0  0  0  0  0  0  0  0
   -9.1056    1.9033    0.0000 C   0  0  0  0  0  0  0  0  0  0  0  0
   -7.8921    1.0216    0.0000 C   0  0  0  0  0  0  0  0  0  0  0  0
   -6.5218    1.6317    0.0000 C   0  0  0  0  0  0  0  0  0  0  0  0
   -5.3083    0.7500    0.0000 C   0  0  0  0  0  0  0  0  0  0  0  0
   -5.3083   -0.7500    0.0000 N   0  0  0  0  0  0  0  0  0  0  0  0
   -3.8817   -1.2135    0.0000 N   0  0  0  0  0  0  0  0  0  0  0  0
   -3.0000    0.0000    0.0000 N   0  0  0  0  0  0  0  0  0  0  0  0
   -3.8817    1.2135    0.0000 N   0  0  0  0  0  0  0  0  0  0  0  0
   -3.4182    2.6401    0.0000 C   0  0  0  0  0  0  0  0  0  0  0  0
   -4.2998    3.8536    0.0000 C   0  0  0  0  0  0  0  0  0  0  0  0
   -3.4182    5.0672    0.0000 C   0  0  0  0  0  0  0  0  0  0  0  0
   -1.9916    4.6036    0.0000 C   0  0  0  0  0  0  0  0  0  0  0  0
   -0.7780    5.4853    0.0000 C   0  0  0  0  0  0  0  0  0  0  0  0
   -0.9348    6.9771    0.0000 O   0  0  0  0  0  0  0  0  0  0  0  0
    0.5923    4.8752    0.0000 N   0  0  0  0  0  0  0  0  0  0  0  0
    1.8058    5.7569    0.0000 C   0  0  0  0  0  0  0  0  0  0  0  0
    1.8058    7.2569    0.0000 N   0  0  0  0  0  0  0  0  0  0  0  0
    3.2324    7.7204    0.0000 N   0  0  0  0  0  0  0  0  0  0  0  0
    4.1141    6.5069    0.0000 N   0  0  0  0  0  0  0  0  0  0  0  0
    3.2324    5.2934    0.0000 N   0  0  0  0  0  0  0  0  0  0  0  0
    3.6959    3.8668    0.0000 C   0  0  0  0  0  0  0  0  0  0  0  0
    2.6922    2.7521    0.0000 C   0  0  0  0  0  0  0  0  0  0  0  0
    3.1557    1.3255    0.0000 C   0  0  0  0  0  0  0  0  0  0  0  0
    4.6230    1.0136    0.0000 C   0  0  0  0  0  0  0  0  0  0  0  0
    5.0865   -0.4130    0.0000 C   0  0  0  0  0  0  0  0  0  0  0  0
    4.0828   -1.5277    0.0000 C   0  0  0  0  0  0  0  0  0  0  0  0
    4.5463   -2.9543    0.0000 C   0  0  0  0  0  0  0  0  0  0  0  0
    6.0135   -3.2661    0.0000 C   0  0  0  0  0  0  0  0  0  0  0  0
    7.0172   -2.1514    0.0000 C   0  0  0  0  0  0  0  0  0  0  0  0
    6.5537   -0.7248    0.0000 C   0  0  0  0  0  0  0  0  0  0  0  0
    5.6267    2.1283    0.0000 C   0  0  0  0  0  0  0  0  0  0  0  0
    5.1631    3.5549    0.0000 C   0  0  0  0  0  0  0  0  0  0  0  0
   -1.9916    3.1036    0.0000 C   0  0  0  0  0  0  0  0  0  0  0  0
   -0.7780    2.2220    0.0000 C   0  0  0  0  0  0  0  0  0  0  0  0
    0.5923    2.8321    0.0000 C   0  0  0  0  0  0  0  0  0  0  0  0
    1.8058    1.9504    0.0000 C   0  0  0  0  0  0  0  0  0  0  0  0
    1.6490    0.4586    0.0000 C   0  0  0  0  0  0  0  0  0  0  0  0
    2.8625   -0.4231    0.0000 C   0  0  0  0  0  0  0  0  0  0  0  0
    4.2329    0.1870    0.0000 O   0  0  0  0  0  0  0  0  0  0  0  0
    2.7057   -1.9149    0.0000 N   0  0  0  0  0  0  0  0  0  0  0  0
    1.3354   -2.5250    0.0000 O   0  0  0  0  0  0  0  0  0  0  0  0
    0.2787   -0.1515    0.0000 N   0  0  0  0  0  0  0  0  0  0  0  0
   -0.9348    0.7302    0.0000 C   0  0  0  0  0  0  0  0  0  0  0  0
   -1.9986   -0.1010    0.0000 O   0  0  0  0  0  0  0  0  0  0  0  0
   -6.3650    3.1235    0.0000 N   0  0  0  0  0  0  0  0  0  0  0  0
   -7.5785    4.0051    0.0000 C   0  0  0  0  0  0  0  0  0  0  0  0
  1  2  1  0
  2  3  2  0
  3  4  1  0
  4  5  2  0
  5  6  1  0
  6  7  2  0
  7  8  1  0
  8  9  2  0
  9 10  1  0
 10 11  1  0
 11 12  2  0
 12 13  1  0
 13 14  2  0
 14 15  1  0
 15 16  2  0
 15 17  1  0
 17 18  1  0
 18 19  2  0
 19 20  1  0
 20 21  2  0
 21 22  1  0
 22 23  1  0
 23 24  2  0
 24 25  1  0
 25 26  2  0
 26 27  1  0
 27 28  2  0
 28 29  1  0
 29 30  2  0
 30 31  1  0
 31 32  2  0
 26 33  1  0
 33 34  2  0
 14 35  1  0
 35 36  1  0
 36 37  2  0
 37 38  1  0
 38 39  2  0
 39 40  1  0
 40 41  2  0
 40 42  1  0
 42 43  1  0
 39 44  1  0
 44 45  1  0
 45 46  2  0
  5 47  1  0
 47 48  1  0
 48  2  1  0
 10  6  1  0
 35 11  1  0
 45 36  1  0
 22 18  1  0
 34 23  1  0
 32 27  1  0
M  END
>  <Title>  (958) 
idABKVgen8

$$$$

     RDKit          2D

 41 47  0  0  0  0  0  0  0  0999 V2000
   -5.6321   10.5120    0.0000 C   0  0  0  0  0  0  0  0  0  0  0  0
   -4.4186    9.6303    0.0000 C   0  0  0  0  0  0  0  0  0  0  0  0
   -4.5754    8.1386    0.0000 C   0  0  0  0  0  0  0  0  0  0  0  0
   -3.3619    7.2569    0.0000 C   0  0  0  0  0  0  0  0  0  0  0  0
   -1.9916    7.8670    0.0000 C   0  0  0  0  0  0  0  0  0  0  0  0
   -0.7780    6.9853    0.0000 C   0  0  0  0  0  0  0  0  0  0  0  0
    0.6485    7.4488    0.0000 N   0  0  0  0  0  0  0  0  0  0  0  0
    1.5302    6.2353    0.0000 N   0  0  0  0  0  0  0  0  0  0  0  0
    0.6485    5.0218    0.0000 N   0  0  0  0  0  0  0  0  0  0  0  0
   -0.7780    5.4853    0.0000 N   0  0  0  0  0  0  0  0  0  0  0  0
   -1.9916    4.6036    0.0000 C   0  0  0  0  0  0  0  0  0  0  0  0
   -3.4182    5.0672    0.0000 N   0  0  0  0  0  0  0  0  0  0  0  0
   -4.2998    3.8536    0.0000 C   0  0  0  0  0  0  0  0  0  0  0  0
   -3.4182    2.6401    0.0000 C   0  0  0  0  0  0  0  0  0  0  0  0
   -1.9916    3.1036    0.0000 C   0  0  0  0  0  0  0  0  0  0  0  0
   -0.7780    2.2220    0.0000 C   0  0  0  0  0  0  0  0  0  0  0  0
    0.6485    2.6855    0.0000 C   0  0  0  0  0  0  0  0  0  0  0  0
    1.5302    1.4720    0.0000 C   0  0  0  0  0  0  0  0  0  0  0  0
    0.6485    0.2584    0.0000 C   0  0  0  0  0  0  0  0  0  0  0  0
    1.1121   -1.1682    0.0000 C   0  0  0  0  0  0  0  0  0  0  0  0
    2.5387   -1.6317    0.0000 N   0  0  0  0  0  0  0  0  0  0  0  0
    2.5387   -3.1317    0.0000 N   0  0  0  0  0  0  0  0  0  0  0  0
    1.1121   -3.5952    0.0000 N   0  0  0  0  0  0  0  0  0  0  0  0
    0.2304   -2.3817    0.0000 N   0  0  0  0  0  0  0  0  0  0  0  0
   -1.2696   -2.3817    0.0000 C   0  0  0  0  0  0  0  0  0  0  0  0
   -2.0196   -1.0826    0.0000 C   0  0  0  0  0  0  0  0  0  0  0  0
   -3.5196   -1.0826    0.0000 C   0  0  0  0  0  0  0  0  0  0  0  0
   -4.2696   -2.3817    0.0000 C   0  0  0  0  0  0  0  0  0  0  0  0
   -5.7696   -2.3817    0.0000 C   0  0  0  0  0  0  0  0  0  0  0  0
   -6.5196   -1.0826    0.0000 C   0  0  0  0  0  0  0  0  0  0  0  0
   -8.0196   -1.0826    0.0000 C   0  0  0  0  0  0  0  0  0  0  0  0
   -8.7696   -2.3817    0.0000 C   0  0  0  0  0  0  0  0  0  0  0  0
   -8.0196   -3.6807    0.0000 C   0  0  0  0  0  0  0  0  0  0  0  0
   -6.5196   -3.6807    0.0000 C   0  0  0  0  0  0  0  0  0  0  0  0
   -3.5196   -3.6807    0.0000 C   0  0  0  0  0  0  0  0  0  0  0  0
   -2.0196   -3.6807    0.0000 C   0  0  0  0  0  0  0  0  0  0  0  0
   -0.7780    0.7220    0.0000 C   0  0  0  0  0  0  0  0  0  0  0  0
   -1.9916   -0.1597    0.0000 O   0  0  0  0  0  0  0  0  0  0  0  0
   -1.8348    9.3588    0.0000 N   0  0  0  0  0  0  0  0  0  0  0  0
   -3.0483   10.2405    0.0000 C   0  0  0  0  0  0  0  0  0  0  0  0
   -2.8915   11.7322    0.0000 O   0  0  0  0  0  0  0  0  0  0  0  0
  1  2  1  0
  2  3  2  0
  3  4  1  0
  4  5  2  0
  5  6  1  0
  6  7  2  0
  7  8  1  0
  8  9  2  0
  9 10  1  0
 10 11  1  0
 11 12  1  0
 12 13  1  0
 13 14  1  0
 14 15  2  0
 15 16  1  0
 16 17  2  0
 17 18  1  0
 18 19  2  0
 19 20  1  0
 20 21  2  0
 21 22  1  0
 22 23  2  0
 23 24  1  0
 24 25  1  0
 25 26  2  0
 26 27  1  0
 27 28  2  0
 28 29  1  0
 29 30  2  0
 30 31  1  0
 31 32  2  0
 32 33  1  0
 33 34  2  0
 28 35  1  0
 35 36  2  0
 19 37  1  0
 37 38  2  0
  5 39  1  0
 39 40  1  0
 40 41  2  0
 40  2  1  0
 10  6  1  0
 15 11  1  0
 37 16  1  0
 24 20  1  0
 36 25  1  0
 34 29  1  0
M  END
>  <Title>  (959) 
idABKWgen8

$$$$

     RDKit          2D

 13 13  0  0  0  0  0  0  0  0999 V2000
    4.3978    0.0000    0.0000 O   0  0  0  0  0  0  0  0  0  0  0  0
    2.8978    0.0000    0.0000 C   0  0  0  0  0  0  0  0  0  0  0  0
    2.5095   -1.4489    0.0000 C   0  0  0  0  0  0  0  0  0  0  0  0
    1.4489   -2.5095    0.0000 C   0  0  0  0  0  0  0  0  0  0  0  0
   -0.0000   -2.8978    0.0000 C   0  0  0  0  0  0  0  0  0  0  0  0
   -1.4489   -2.5095    0.0000 C   0  0  0  0  0  0  0  0  0  0  0  0
   -2.5095   -1.4489    0.0000 C   0  0  0  0  0  0  0  0  0  0  0  0
   -2.8978    0.0000    0.0000 C   0  0  0  0  0  0  0  0  0  0  0  0
   -2.5095    1.4489    0.0000 C   0  0  0  0  0  0  0  0  0  0  0  0
   -1.4489    2.5095    0.0000 C   0  0  0  0  0  0  0  0  0  0  0  0
    0.0000    2.8978    0.0000 C   0  0  0  0  0  0  0  0  0  0  0  0
    1.4489    2.5095    0.0000 C   0  0  0  0  0  0  0  0  0  0  0  0
    2.5095    1.4489    0.0000 C   0  0  0  0  0  0  0  0  0  0  0  0
  1  2  1  0
  2  3  2  0
  3  4  1  0
  4  5  2  0
  5  6  1  0
  6  7  2  0
  7  8  1  0
  8  9  2  0
  9 10  1  0
 10 11  1  0
 11 12  1  0
 12 13  1  0
 13  2  1  0
M  END
>  <Title>  (960) 
idABKXgen8

$$$$

     RDKit          2D

 39 44  0  0  0  0  0  0  0  0999 V2000
    3.0000    0.0000    0.0000 C   0  0  0  0  0  0  0  0  0  0  0  0
    1.5000    0.0000    0.0000 C   0  0  0  0  0  0  0  0  0  0  0  0
    0.7500   -1.2990    0.0000 C   0  0  0  0  0  0  0  0  0  0  0  0
   -0.7500   -1.2990    0.0000 C   0  0  0  0  0  0  0  0  0  0  0  0
   -1.5000    0.0000    0.0000 C   0  0  0  0  0  0  0  0  0  0  0  0
   -3.0000    0.0000    0.0000 C   0  0  0  0  0  0  0  0  0  0  0  0
   -3.7500   -1.2990    0.0000 O   0  0  0  0  0  0  0  0  0  0  0  0
   -3.7500    1.2990    0.0000 N   0  0  0  0  0  0  0  0  0  0  0  0
   -5.2500    1.2990    0.0000 C   0  0  0  0  0  0  0  0  0  0  0  0
   -6.1317    0.0855    0.0000 N   0  0  0  0  0  0  0  0  0  0  0  0
   -7.5583    0.5490    0.0000 N   0  0  0  0  0  0  0  0  0  0  0  0
   -7.5583    2.0490    0.0000 N   0  0  0  0  0  0  0  0  0  0  0  0
   -6.1317    2.5126    0.0000 N   0  0  0  0  0  0  0  0  0  0  0  0
   -5.6682    3.9391    0.0000 C   0  0  0  0  0  0  0  0  0  0  0  0
   -4.2009    4.2510    0.0000 C   0  0  0  0  0  0  0  0  0  0  0  0
   -3.7374    5.6776    0.0000 C   0  0  0  0  0  0  0  0  0  0  0  0
   -4.7411    6.7923    0.0000 C   0  0  0  0  0  0  0  0  0  0  0  0
   -4.2776    8.2189    0.0000 C   0  0  0  0  0  0  0  0  0  0  0  0
   -5.1593    9.4324    0.0000 N   0  0  0  0  0  0  0  0  0  0  0  0
   -4.2776   10.6460    0.0000 N   0  0  0  0  0  0  0  0  0  0  0  0
   -2.8510   10.1824    0.0000 N   0  0  0  0  0  0  0  0  0  0  0  0
   -2.8510    8.6824    0.0000 N   0  0  0  0  0  0  0  0  0  0  0  0
   -1.6375    7.8008    0.0000 C   0  0  0  0  0  0  0  0  0  0  0  0
   -1.7943    6.3090    0.0000 C   0  0  0  0  0  0  0  0  0  0  0  0
   -0.5807    5.4273    0.0000 C   0  0  0  0  0  0  0  0  0  0  0  0
    0.7896    6.0374    0.0000 C   0  0  0  0  0  0  0  0  0  0  0  0
    0.9464    7.5292    0.0000 C   0  0  0  0  0  0  0  0  0  0  0  0
   -0.2671    8.4109    0.0000 C   0  0  0  0  0  0  0  0  0  0  0  0
   -6.2083    6.4805    0.0000 C   0  0  0  0  0  0  0  0  0  0  0  0
   -6.6718    5.0539    0.0000 C   0  0  0  0  0  0  0  0  0  0  0  0
   -8.1391    4.7420    0.0000 C   0  0  0  0  0  0  0  0  0  0  0  0
   -9.1428    5.8567    0.0000 C   0  0  0  0  0  0  0  0  0  0  0  0
  -10.6100    5.5448    0.0000 C   0  0  0  0  0  0  0  0  0  0  0  0
  -11.0735    4.1183    0.0000 C   0  0  0  0  0  0  0  0  0  0  0  0
  -10.0698    3.0035    0.0000 C   0  0  0  0  0  0  0  0  0  0  0  0
   -8.6026    3.3154    0.0000 C   0  0  0  0  0  0  0  0  0  0  0  0
   -0.7500    1.2990    0.0000 C   0  0  0  0  0  0  0  0  0  0  0  0
   -1.5000    2.5981    0.0000 O   0  0  0  0  0  0  0  0  0  0  0  0
    0.7500    1.2990    0.0000 N   0  0  0  0  0  0  0  0  0  0  0  0
  1  2  1  0
  2  3  2  0
  3  4  1  0
  4  5  2  0
  5  6  1  0
  6  7  2  0
  6  8  1  0
  8  9  1  0
  9 10  2  0
 10 11  1  0
 11 12  2  0
 12 13  1  0
 13 14  1  0
 14 15  2  0
 15 16  1  0
 16 17  2  0
 17 18  1  0
 18 19  2  0
 19 20  1  0
 20 21  2  0
 21 22  1  0
 22 23  1  0
 23 24  2  0
 24 25  1  0
 25 26  2  0
 26 27  1  0
 27 28  2  0
 17 29  1  0
 29 30  2  0
 30 31  1  0
 31 32  2  0
 32 33  1  0
 33 34  2  0
 34 35  1  0
 35 36  2  0
  5 37  1  0
 37 38  2  0
 37 39  1  0
 39  2  1  0
 13  9  1  0
 30 14  1  0
 36 31  1  0
 22 18  1  0
 28 23  1  0
M  END
>  <Title>  (961) 
idABKYgen8

$$$$

     RDKit          2D

 66 76  0  0  0  0  0  0  0  0999 V2000
    5.6883   -3.2846    0.0000 C   0  0  0  0  0  0  0  0  0  0  0  0
    5.1403   -1.8883    0.0000 C   0  0  0  0  0  0  0  0  0  0  0  0
    3.6570   -1.6647    0.0000 C   0  0  0  0  0  0  0  0  0  0  0  0
    3.1090   -0.2684    0.0000 C   0  0  0  0  0  0  0  0  0  0  0  0
    4.0442    0.9043    0.0000 C   0  0  0  0  0  0  0  0  0  0  0  0
    3.4962    2.3006    0.0000 C   0  0  0  0  0  0  0  0  0  0  0  0
    4.4315    3.4734    0.0000 C   0  0  0  0  0  0  0  0  0  0  0  0
    3.8835    4.8697    0.0000 C   0  0  0  0  0  0  0  0  0  0  0  0
    2.4002    5.0933    0.0000 N   0  0  0  0  0  0  0  0  0  0  0  0
    1.4650    3.9205    0.0000 N   0  0  0  0  0  0  0  0  0  0  0  0
    2.0130    2.5242    0.0000 N   0  0  0  0  0  0  0  0  0  0  0  0
    1.0777    1.3515    0.0000 C   0  0  0  0  0  0  0  0  0  0  0  0
    1.7286    0.0000    0.0000 N   0  0  0  0  0  0  0  0  0  0  0  0
    1.0777   -1.3515    0.0000 C   0  0  0  0  0  0  0  0  0  0  0  0
   -0.3846   -1.6852    0.0000 C   0  0  0  0  0  0  0  0  0  0  0  0
   -1.5574   -0.7500    0.0000 C   0  0  0  0  0  0  0  0  0  0  0  0
   -2.9088   -1.4008    0.0000 C   0  0  0  0  0  0  0  0  0  0  0  0
   -4.2297   -0.6900    0.0000 N   0  0  0  0  0  0  0  0  0  0  0  0
   -5.3139   -1.7266    0.0000 N   0  0  0  0  0  0  0  0  0  0  0  0
   -4.6631   -3.0781    0.0000 N   0  0  0  0  0  0  0  0  0  0  0  0
   -3.1767   -2.8767    0.0000 N   0  0  0  0  0  0  0  0  0  0  0  0
   -2.1401   -3.9609    0.0000 C   0  0  0  0  0  0  0  0  0  0  0  0
   -0.6829   -3.6053    0.0000 C   0  0  0  0  0  0  0  0  0  0  0  0
    0.3537   -4.6895    0.0000 C   0  0  0  0  0  0  0  0  0  0  0  0
   -0.0669   -6.1293    0.0000 C   0  0  0  0  0  0  0  0  0  0  0  0
   -1.5241   -6.4849    0.0000 N   0  0  0  0  0  0  0  0  0  0  0  0
   -2.5607   -5.4007    0.0000 C   0  0  0  0  0  0  0  0  0  0  0  0
   -1.5574    0.7500    0.0000 C   0  0  0  0  0  0  0  0  0  0  0  0
   -0.3846    1.6852    0.0000 C   0  0  0  0  0  0  0  0  0  0  0  0
   -0.7184    3.1476    0.0000 C   0  0  0  0  0  0  0  0  0  0  0  0
    0.3812    4.1679    0.0000 C   0  0  0  0  0  0  0  0  0  0  0  0
    0.0474    5.6303    0.0000 N   0  0  0  0  0  0  0  0  0  0  0  0
   -1.3860    6.0724    0.0000 N   0  0  0  0  0  0  0  0  0  0  0  0
   -2.4856    5.0522    0.0000 N   0  0  0  0  0  0  0  0  0  0  0  0
   -2.1518    3.5898    0.0000 C   0  0  0  0  0  0  0  0  0  0  0  0
   -3.2514    2.5695    0.0000 C   0  0  0  0  0  0  0  0  0  0  0  0
   -3.0723    1.0802    0.0000 C   0  0  0  0  0  0  0  0  0  0  0  0
   -4.4333    0.4497    0.0000 N   0  0  0  0  0  0  0  0  0  0  0  0
   -5.4536    1.5493    0.0000 N   0  0  0  0  0  0  0  0  0  0  0  0
   -4.7231    2.8594    0.0000 N   0  0  0  0  0  0  0  0  0  0  0  0
   -5.3536    4.2204    0.0000 C   0  0  0  0  0  0  0  0  0  0  0  0
   -4.4902    5.4470    0.0000 C   0  0  0  0  0  0  0  0  0  0  0  0
   -5.1207    6.8080    0.0000 C   0  0  0  0  0  0  0  0  0  0  0  0
   -6.6147    6.9425    0.0000 C   0  0  0  0  0  0  0  0  0  0  0  0
   -7.4781    5.7159    0.0000 C   0  0  0  0  0  0  0  0  0  0  0  0
   -6.8476    4.3549    0.0000 C   0  0  0  0  0  0  0  0  0  0  0  0
   -7.7110    3.1283    0.0000 C   0  0  0  0  0  0  0  0  0  0  0  0
   -7.2262    1.7088    0.0000 C   0  0  0  0  0  0  0  0  0  0  0  0
   -8.4264    0.8091    0.0000 C   0  0  0  0  0  0  0  0  0  0  0  0
   -9.6530    1.6725    0.0000 C   0  0  0  0  0  0  0  0  0  0  0  0
  -11.0725    1.1877    0.0000 C   0  0  0  0  0  0  0  0  0  0  0  0
  -11.5146   -0.2457    0.0000 N   0  0  0  0  0  0  0  0  0  0  0  0
  -13.0144   -0.2681    0.0000 N   0  0  0  0  0  0  0  0  0  0  0  0
  -13.4992    1.1514    0.0000 N   0  0  0  0  0  0  0  0  0  0  0  0
  -12.2990    2.0511    0.0000 N   0  0  0  0  0  0  0  0  0  0  0  0
  -12.3215    3.5509    0.0000 C   0  0  0  0  0  0  0  0  0  0  0  0
  -11.0338    4.3203    0.0000 C   0  0  0  0  0  0  0  0  0  0  0  0
  -11.0562    5.8201    0.0000 C   0  0  0  0  0  0  0  0  0  0  0  0
  -12.3664    6.5506    0.0000 C   0  0  0  0  0  0  0  0  0  0  0  0
  -13.6540    5.7813    0.0000 C   0  0  0  0  0  0  0  0  0  0  0  0
  -13.6316    4.2814    0.0000 C   0  0  0  0  0  0  0  0  0  0  0  0
   -9.2108    3.1059    0.0000 C   0  0  0  0  0  0  0  0  0  0  0  0
  -10.1106    4.3061    0.0000 O   0  0  0  0  0  0  0  0  0  0  0  0
    5.5275    0.6808    0.0000 C   0  0  0  0  0  0  0  0  0  0  0  0
    6.4627    1.8535    0.0000 O   0  0  0  0  0  0  0  0  0  0  0  0
    6.0755   -0.7155    0.0000 N   0  0  0  0  0  0  0  0  0  0  0  0
  1  2  1  0
  2  3  2  0
  3  4  1  0
  4  5  2  0
  5  6  1  0
  6  7  1  0
  7  8  1  0
  8  9  1  0
  9 10  2  0
 10 11  1  0
 11 12  1  0
 12 13  1  0
 13 14  1  0
 14 15  1  0
 15 16  2  0
 16 17  1  0
 17 18  2  0
 18 19  1  0
 19 20  2  0
 20 21  1  0
 21 22  1  0
 22 23  2  0
 23 24  1  0
 24 25  2  0
 25 26  1  0
 26 27  2  0
 16 28  1  0
 28 29  2  0
 29 30  1  0
 30 31  2  0
 31 32  1  0
 32 33  2  0
 33 34  1  0
 34 35  2  0
 35 36  1  0
 36 37  2  0
 37 38  1  0
 38 39  2  0
 39 40  1  0
 40 41  1  0
 41 42  2  0
 42 43  1  0
 43 44  2  0
 44 45  1  0
 45 46  2  0
 46 47  1  0
 47 48  2  0
 48 49  1  0
 49 50  2  0
 50 51  1  0
 51 52  2  0
 52 53  1  0
 53 54  2  0
 54 55  1  0
 55 56  1  0
 56 57  2  0
 57 58  1  0
 58 59  2  0
 59 60  1  0
 60 61  2  0
 50 62  1  0
 62 63  2  0
  5 64  1  0
 64 65  2  0
 64 66  1  0
 66  2  1  0
 11  6  1  0
 29 12  1  0
 35 30  1  0
 40 36  1  0
 46 41  1  0
 62 47  1  0
 21 17  1  0
 27 22  1  0
 55 51  1  0
 61 56  1  0
M  END
>  <Title>  (962) 
idABKZgen8

$$$$

     RDKit          2D

 33 37  0  0  0  0  0  0  0  0999 V2000
    3.0000    0.0000    0.0000 C   0  0  0  0  0  0  0  0  0  0  0  0
    1.5000    0.0000    0.0000 C   0  0  0  0  0  0  0  0  0  0  0  0
    0.7500    1.2990    0.0000 C   0  0  0  0  0  0  0  0  0  0  0  0
   -0.7500    1.2990    0.0000 C   0  0  0  0  0  0  0  0  0  0  0  0
   -1.5000    0.0000    0.0000 C   0  0  0  0  0  0  0  0  0  0  0  0
   -3.0000    0.0000    0.0000 C   0  0  0  0  0  0  0  0  0  0  0  0
   -3.7500   -1.2990    0.0000 O   0  0  0  0  0  0  0  0  0  0  0  0
   -3.7500    1.2990    0.0000 N   0  0  0  0  0  0  0  0  0  0  0  0
   -5.2500    1.2990    0.0000 C   0  0  0  0  0  0  0  0  0  0  0  0
   -6.1317    0.0855    0.0000 N   0  0  0  0  0  0  0  0  0  0  0  0
   -7.5583    0.5490    0.0000 N   0  0  0  0  0  0  0  0  0  0  0  0
   -7.5583    2.0490    0.0000 C   0  0  0  0  0  0  0  0  0  0  0  0
   -6.1317    2.5126    0.0000 N   0  0  0  0  0  0  0  0  0  0  0  0
   -5.6682    3.9391    0.0000 C   0  0  0  0  0  0  0  0  0  0  0  0
   -6.5498    5.1527    0.0000 C   0  0  0  0  0  0  0  0  0  0  0  0
   -5.6682    6.3662    0.0000 C   0  0  0  0  0  0  0  0  0  0  0  0
   -4.2416    5.9027    0.0000 C   0  0  0  0  0  0  0  0  0  0  0  0
   -3.0280    6.7844    0.0000 C   0  0  0  0  0  0  0  0  0  0  0  0
   -3.0280    8.2844    0.0000 N   0  0  0  0  0  0  0  0  0  0  0  0
   -1.6015    8.7479    0.0000 N   0  0  0  0  0  0  0  0  0  0  0  0
   -0.7198    7.5344    0.0000 N   0  0  0  0  0  0  0  0  0  0  0  0
   -1.6015    6.3208    0.0000 N   0  0  0  0  0  0  0  0  0  0  0  0
   -1.1379    4.8942    0.0000 C   0  0  0  0  0  0  0  0  0  0  0  0
   -2.1416    3.7795    0.0000 C   0  0  0  0  0  0  0  0  0  0  0  0
   -1.6781    2.3529    0.0000 C   0  0  0  0  0  0  0  0  0  0  0  0
   -0.2109    2.0411    0.0000 C   0  0  0  0  0  0  0  0  0  0  0  0
    0.7928    3.1558    0.0000 C   0  0  0  0  0  0  0  0  0  0  0  0
    0.3293    4.5824    0.0000 C   0  0  0  0  0  0  0  0  0  0  0  0
   -4.2416    4.4027    0.0000 C   0  0  0  0  0  0  0  0  0  0  0  0
   -3.0280    3.5210    0.0000 O   0  0  0  0  0  0  0  0  0  0  0  0
   -0.7500   -1.2990    0.0000 C   0  0  0  0  0  0  0  0  0  0  0  0
   -1.5000   -2.5981    0.0000 O   0  0  0  0  0  0  0  0  0  0  0  0
    0.7500   -1.2990    0.0000 N   0  0  0  0  0  0  0  0  0  0  0  0
  1  2  1  0
  2  3  2  0
  3  4  1  0
  4  5  2  0
  5  6  1  0
  6  7  2  0
  6  8  1  0
  8  9  1  0
  9 10  2  0
 10 11  1  0
 11 12  2  0
 12 13  1  0
 13 14  1  0
 14 15  2  0
 15 16  1  0
 16 17  2  0
 17 18  1  0
 18 19  2  0
 19 20  1  0
 20 21  2  0
 21 22  1  0
 22 23  1  0
 23 24  2  0
 24 25  1  0
 25 26  2  0
 26 27  1  0
 27 28  2  0
 17 29  1  0
 29 30  2  0
  5 31  1  0
 31 32  2  0
 31 33  1  0
 33  2  1  0
 13  9  1  0
 29 14  1  0
 22 18  1  0
 28 23  1  0
M  END
>  <Title>  (963) 
idABLAgen8

$$$$

     RDKit          2D

 47 53  0  0  0  0  0  0  0  0999 V2000
    3.0000    0.0000    0.0000 C   0  0  0  0  0  0  0  0  0  0  0  0
    1.5000    0.0000    0.0000 C   0  0  0  0  0  0  0  0  0  0  0  0
    0.7500   -1.2990    0.0000 C   0  0  0  0  0  0  0  0  0  0  0  0
   -0.7500   -1.2990    0.0000 C   0  0  0  0  0  0  0  0  0  0  0  0
   -1.5000    0.0000    0.0000 C   0  0  0  0  0  0  0  0  0  0  0  0
   -3.0000    0.0000    0.0000 C   0  0  0  0  0  0  0  0  0  0  0  0
   -3.7500   -1.2990    0.0000 O   0  0  0  0  0  0  0  0  0  0  0  0
   -3.7500    1.2990    0.0000 N   0  0  0  0  0  0  0  0  0  0  0  0
   -5.2500    1.2990    0.0000 C   0  0  0  0  0  0  0  0  0  0  0  0
   -6.1317    0.0855    0.0000 N   0  0  0  0  0  0  0  0  0  0  0  0
   -7.5583    0.5490    0.0000 N   0  0  0  0  0  0  0  0  0  0  0  0
   -7.5583    2.0490    0.0000 N   0  0  0  0  0  0  0  0  0  0  0  0
   -6.1317    2.5126    0.0000 N   0  0  0  0  0  0  0  0  0  0  0  0
   -5.6682    3.9391    0.0000 C   0  0  0  0  0  0  0  0  0  0  0  0
   -4.2009    4.2510    0.0000 C   0  0  0  0  0  0  0  0  0  0  0  0
   -3.7374    5.6776    0.0000 C   0  0  0  0  0  0  0  0  0  0  0  0
   -4.7411    6.7923    0.0000 C   0  0  0  0  0  0  0  0  0  0  0  0
   -4.2776    8.2189    0.0000 C   0  0  0  0  0  0  0  0  0  0  0  0
   -5.2813    9.3336    0.0000 O   0  0  0  0  0  0  0  0  0  0  0  0
   -2.8104    8.5308    0.0000 N   0  0  0  0  0  0  0  0  0  0  0  0
   -2.3468    9.9574    0.0000 C   0  0  0  0  0  0  0  0  0  0  0  0
   -0.8796   10.2692    0.0000 C   0  0  0  0  0  0  0  0  0  0  0  0
   -0.4161   11.6958    0.0000 C   0  0  0  0  0  0  0  0  0  0  0  0
   -1.4198   12.8105    0.0000 C   0  0  0  0  0  0  0  0  0  0  0  0
   -2.8870   12.4987    0.0000 C   0  0  0  0  0  0  0  0  0  0  0  0
   -3.3505   11.0721    0.0000 C   0  0  0  0  0  0  0  0  0  0  0  0
   -6.2083    6.4805    0.0000 C   0  0  0  0  0  0  0  0  0  0  0  0
   -6.6718    5.0539    0.0000 C   0  0  0  0  0  0  0  0  0  0  0  0
   -8.1391    4.7420    0.0000 C   0  0  0  0  0  0  0  0  0  0  0  0
   -9.1428    5.8567    0.0000 C   0  0  0  0  0  0  0  0  0  0  0  0
  -10.6100    5.5448    0.0000 C   0  0  0  0  0  0  0  0  0  0  0  0
  -11.0735    4.1183    0.0000 C   0  0  0  0  0  0  0  0  0  0  0  0
  -12.5407    3.8064    0.0000 C   0  0  0  0  0  0  0  0  0  0  0  0
  -13.1508    2.4361    0.0000 N   0  0  0  0  0  0  0  0  0  0  0  0
  -14.6426    2.5929    0.0000 N   0  0  0  0  0  0  0  0  0  0  0  0
  -14.9545    4.0601    0.0000 N   0  0  0  0  0  0  0  0  0  0  0  0
  -13.6555    4.8101    0.0000 N   0  0  0  0  0  0  0  0  0  0  0  0
  -13.4987    6.3019    0.0000 C   0  0  0  0  0  0  0  0  0  0  0  0
  -12.1283    6.9120    0.0000 C   0  0  0  0  0  0  0  0  0  0  0  0
  -11.9715    8.4038    0.0000 C   0  0  0  0  0  0  0  0  0  0  0  0
  -13.1851    9.2854    0.0000 C   0  0  0  0  0  0  0  0  0  0  0  0
  -14.5554    8.6753    0.0000 C   0  0  0  0  0  0  0  0  0  0  0  0
  -14.7122    7.1836    0.0000 C   0  0  0  0  0  0  0  0  0  0  0  0
  -10.0698    3.0035    0.0000 C   0  0  0  0  0  0  0  0  0  0  0  0
   -8.6026    3.3154    0.0000 C   0  0  0  0  0  0  0  0  0  0  0  0
   -0.7500    1.2990    0.0000 C   0  0  0  0  0  0  0  0  0  0  0  0
    0.7500    1.2990    0.0000 C   0  0  0  0  0  0  0  0  0  0  0  0
  1  2  1  0
  2  3  2  0
  3  4  1  0
  4  5  2  0
  5  6  1  0
  6  7  2  0
  6  8  1  0
  8  9  1  0
  9 10  2  0
 10 11  1  0
 11 12  2  0
 12 13  1  0
 13 14  1  0
 14 15  2  0
 15 16  1  0
 16 17  2  0
 17 18  1  0
 18 19  2  0
 18 20  1  0
 20 21  1  0
 21 22  2  0
 22 23  1  0
 23 24  2  0
 24 25  1  0
 25 26  2  0
 17 27  1  0
 27 28  2  0
 28 29  1  0
 29 30  2  0
 30 31  1  0
 31 32  2  0
 32 33  1  0
 33 34  2  0
 34 35  1  0
 35 36  2  0
 36 37  1  0
 37 38  1  0
 38 39  2  0
 39 40  1  0
 40 41  2  0
 41 42  1  0
 42 43  2  0
 32 44  1  0
 44 45  2  0
  5 46  1  0
 46 47  2  0
 47  2  1  0
 13  9  1  0
 28 14  1  0
 45 29  1  0
 26 21  1  0
 37 33  1  0
 43 38  1  0
M  END
>  <Title>  (964) 
idABLBgen8

$$$$

     RDKit          2D

 35 40  0  0  0  0  0  0  0  0999 V2000
    3.0000    0.0000    0.0000 C   0  0  0  0  0  0  0  0  0  0  0  0
    1.5000    0.0000    0.0000 C   0  0  0  0  0  0  0  0  0  0  0  0
    0.7500    1.2990    0.0000 C   0  0  0  0  0  0  0  0  0  0  0  0
   -0.7500    1.2990    0.0000 C   0  0  0  0  0  0  0  0  0  0  0  0
   -1.5000    0.0000    0.0000 C   0  0  0  0  0  0  0  0  0  0  0  0
   -3.0000    0.0000    0.0000 C   0  0  0  0  0  0  0  0  0  0  0  0
   -3.8817   -1.2135    0.0000 N   0  0  0  0  0  0  0  0  0  0  0  0
   -5.3083   -0.7500    0.0000 N   0  0  0  0  0  0  0  0  0  0  0  0
   -5.3083    0.7500    0.0000 N   0  0  0  0  0  0  0  0  0  0  0  0
   -3.8817    1.2135    0.0000 N   0  0  0  0  0  0  0  0  0  0  0  0
   -3.4182    2.6401    0.0000 C   0  0  0  0  0  0  0  0  0  0  0  0
   -4.2998    3.8536    0.0000 C   0  0  0  0  0  0  0  0  0  0  0  0
   -3.4182    5.0672    0.0000 C   0  0  0  0  0  0  0  0  0  0  0  0
   -1.9916    4.6036    0.0000 C   0  0  0  0  0  0  0  0  0  0  0  0
   -0.7780    5.4853    0.0000 C   0  0  0  0  0  0  0  0  0  0  0  0
    0.6485    5.0218    0.0000 N   0  0  0  0  0  0  0  0  0  0  0  0
    1.5302    6.2353    0.0000 N   0  0  0  0  0  0  0  0  0  0  0  0
    0.6485    7.4488    0.0000 N   0  0  0  0  0  0  0  0  0  0  0  0
   -0.7780    6.9853    0.0000 N   0  0  0  0  0  0  0  0  0  0  0  0
   -1.9916    7.8670    0.0000 C   0  0  0  0  0  0  0  0  0  0  0  0
   -3.4182    7.4035    0.0000 N   0  0  0  0  0  0  0  0  0  0  0  0
   -4.2998    8.6170    0.0000 N   0  0  0  0  0  0  0  0  0  0  0  0
   -3.4182    9.8305    0.0000 N   0  0  0  0  0  0  0  0  0  0  0  0
   -1.9916    9.3670    0.0000 N   0  0  0  0  0  0  0  0  0  0  0  0
   -0.7780   10.2487    0.0000 C   0  0  0  0  0  0  0  0  0  0  0  0
   -0.9348   11.7405    0.0000 C   0  0  0  0  0  0  0  0  0  0  0  0
    0.2787   12.6221    0.0000 C   0  0  0  0  0  0  0  0  0  0  0  0
    1.6490   12.0120    0.0000 C   0  0  0  0  0  0  0  0  0  0  0  0
    1.8058   10.5202    0.0000 C   0  0  0  0  0  0  0  0  0  0  0  0
    0.5923    9.6386    0.0000 C   0  0  0  0  0  0  0  0  0  0  0  0
   -1.9916    3.1036    0.0000 C   0  0  0  0  0  0  0  0  0  0  0  0
   -0.7780    2.2220    0.0000 O   0  0  0  0  0  0  0  0  0  0  0  0
   -0.7500   -1.2990    0.0000 N   0  0  0  0  0  0  0  0  0  0  0  0
    0.7500   -1.2990    0.0000 C   0  0  0  0  0  0  0  0  0  0  0  0
    1.5000   -2.5981    0.0000 O   0  0  0  0  0  0  0  0  0  0  0  0
  1  2  1  0
  2  3  2  0
  3  4  1  0
  4  5  2  0
  5  6  1  0
  6  7  2  0
  7  8  1  0
  8  9  2  0
  9 10  1  0
 10 11  1  0
 11 12  2  0
 12 13  1  0
 13 14  2  0
 14 15  1  0
 15 16  2  0
 16 17  1  0
 17 18  2  0
 18 19  1  0
 19 20  1  0
 20 21  2  0
 21 22  1  0
 22 23  2  0
 23 24  1  0
 24 25  1  0
 25 26  2  0
 26 27  1  0
 27 28  2  0
 28 29  1  0
 29 30  2  0
 14 31  1  0
 31 32  2  0
  5 33  1  0
 33 34  1  0
 34 35  2  0
 34  2  1  0
 10  6  1  0
 31 11  1  0
 19 15  1  0
 24 20  1  0
 30 25  1  0
M  END
>  <Title>  (965) 
idABLCgen8

$$$$

     RDKit          2D

 39 43  0  0  0  0  0  0  0  0999 V2000
   -5.8993    9.5649    0.0000 C   0  0  0  0  0  0  0  0  0  0  0  0
   -5.6536    8.0852    0.0000 O   0  0  0  0  0  0  0  0  0  0  0  0
   -4.2492    7.5581    0.0000 C   0  0  0  0  0  0  0  0  0  0  0  0
   -3.0906    8.5108    0.0000 C   0  0  0  0  0  0  0  0  0  0  0  0
   -1.6862    7.9837    0.0000 C   0  0  0  0  0  0  0  0  0  0  0  0
   -1.4405    6.5040    0.0000 C   0  0  0  0  0  0  0  0  0  0  0  0
   -0.0362    5.9769    0.0000 C   0  0  0  0  0  0  0  0  0  0  0  0
    1.1225    6.9296    0.0000 O   0  0  0  0  0  0  0  0  0  0  0  0
    0.2096    4.4972    0.0000 N   0  0  0  0  0  0  0  0  0  0  0  0
    1.6139    3.9701    0.0000 C   0  0  0  0  0  0  0  0  0  0  0  0
    2.8658    4.7965    0.0000 N   0  0  0  0  0  0  0  0  0  0  0  0
    4.0385    3.8613    0.0000 N   0  0  0  0  0  0  0  0  0  0  0  0
    3.5115    2.4569    0.0000 N   0  0  0  0  0  0  0  0  0  0  0  0
    2.0130    2.5242    0.0000 N   0  0  0  0  0  0  0  0  0  0  0  0
    1.0777    1.3515    0.0000 C   0  0  0  0  0  0  0  0  0  0  0  0
    1.7286    0.0000    0.0000 C   0  0  0  0  0  0  0  0  0  0  0  0
    1.0777   -1.3515    0.0000 C   0  0  0  0  0  0  0  0  0  0  0  0
   -0.3846   -1.6852    0.0000 C   0  0  0  0  0  0  0  0  0  0  0  0
   -0.7184   -3.1476    0.0000 C   0  0  0  0  0  0  0  0  0  0  0  0
    0.2685   -4.2772    0.0000 N   0  0  0  0  0  0  0  0  0  0  0  0
   -0.5009   -5.5649    0.0000 N   0  0  0  0  0  0  0  0  0  0  0  0
   -1.9633   -5.2311    0.0000 N   0  0  0  0  0  0  0  0  0  0  0  0
   -2.0977   -3.7372    0.0000 N   0  0  0  0  0  0  0  0  0  0  0  0
   -3.3854   -2.9678    0.0000 C   0  0  0  0  0  0  0  0  0  0  0  0
   -3.3630   -1.4680    0.0000 C   0  0  0  0  0  0  0  0  0  0  0  0
   -4.6506   -0.6986    0.0000 C   0  0  0  0  0  0  0  0  0  0  0  0
   -5.9607   -1.4291    0.0000 C   0  0  0  0  0  0  0  0  0  0  0  0
   -7.2484   -0.6598    0.0000 C   0  0  0  0  0  0  0  0  0  0  0  0
   -8.5585   -1.3903    0.0000 O   0  0  0  0  0  0  0  0  0  0  0  0
   -7.2260    0.8401    0.0000 N   0  0  0  0  0  0  0  0  0  0  0  0
   -8.5136    1.6094    0.0000 O   0  0  0  0  0  0  0  0  0  0  0  0
   -5.9832   -2.9289    0.0000 C   0  0  0  0  0  0  0  0  0  0  0  0
   -4.6955   -3.6983    0.0000 C   0  0  0  0  0  0  0  0  0  0  0  0
   -1.5574   -0.7500    0.0000 C   0  0  0  0  0  0  0  0  0  0  0  0
   -1.5574    0.7500    0.0000 C   0  0  0  0  0  0  0  0  0  0  0  0
   -0.3846    1.6852    0.0000 O   0  0  0  0  0  0  0  0  0  0  0  0
   -2.5991    5.5513    0.0000 C   0  0  0  0  0  0  0  0  0  0  0  0
   -4.0035    6.0784    0.0000 C   0  0  0  0  0  0  0  0  0  0  0  0
   -5.1621    5.1257    0.0000 C   0  0  0  0  0  0  0  0  0  0  0  0
  1  2  1  0
  2  3  1  0
  3  4  2  0
  4  5  1  0
  5  6  2  0
  6  7  1  0
  7  8  2  0
  7  9  1  0
  9 10  1  0
 10 11  2  0
 11 12  1  0
 12 13  2  0
 13 14  1  0
 14 15  1  0
 15 16  1  0
 16 17  2  0
 17 18  1  0
 18 19  1  0
 19 20  2  0
 20 21  1  0
 21 22  2  0
 22 23  1  0
 23 24  1  0
 24 25  2  0
 25 26  1  0
 26 27  2  0
 27 28  1  0
 28 29  2  0
 28 30  1  0
 30 31  1  0
 27 32  1  0
 32 33  1  0
 18 34  2  0
 34 35  1  0
 35 36  1  0
  6 37  1  0
 37 38  2  0
 38 39  1  0
 38  3  1  0
 14 10  1  0
 36 15  1  0
 23 19  1  0
 33 24  1  0
M  END
>  <Title>  (966) 
idABLDgen8

$$$$

     RDKit          2D

 24 26  0  0  0  0  0  0  0  0999 V2000
    3.0000   -5.1962    0.0000 O   0  0  0  0  0  0  0  0  0  0  0  0
    1.5000   -5.1962    0.0000 C   0  0  0  0  0  0  0  0  0  0  0  0
    0.7500   -6.4952    0.0000 C   0  0  0  0  0  0  0  0  0  0  0  0
    1.5000   -7.7942    0.0000 C   0  0  0  0  0  0  0  0  0  0  0  0
    0.7500   -9.0933    0.0000 C   0  0  0  0  0  0  0  0  0  0  0  0
    1.5000  -10.3923    0.0000 N   0  0  0  0  0  0  0  0  0  0  0  0
    2.9918  -10.5491    0.0000 C   0  0  0  0  0  0  0  0  0  0  0  0
    3.3037  -12.0163    0.0000 C   0  0  0  0  0  0  0  0  0  0  0  0
    2.0046  -12.7663    0.0000 C   0  0  0  0  0  0  0  0  0  0  0  0
    0.8899  -11.7626    0.0000 C   0  0  0  0  0  0  0  0  0  0  0  0
   -0.5773  -12.0745    0.0000 N   0  0  0  0  0  0  0  0  0  0  0  0
   -1.1874  -13.4448    0.0000 C   0  0  0  0  0  0  0  0  0  0  0  0
   -2.6792  -13.2880    0.0000 C   0  0  0  0  0  0  0  0  0  0  0  0
   -2.9911  -11.8208    0.0000 C   0  0  0  0  0  0  0  0  0  0  0  0
   -1.6920  -11.0708    0.0000 C   0  0  0  0  0  0  0  0  0  0  0  0
   -1.5353   -9.5790    0.0000 O   0  0  0  0  0  0  0  0  0  0  0  0
    0.7500   -3.8971    0.0000 C   0  0  0  0  0  0  0  0  0  0  0  0
    1.5000   -2.5981    0.0000 C   0  0  0  0  0  0  0  0  0  0  0  0
    0.7500   -1.2990    0.0000 C   0  0  0  0  0  0  0  0  0  0  0  0
    1.5000    0.0000    0.0000 C   0  0  0  0  0  0  0  0  0  0  0  0
    0.7500    1.2990    0.0000 C   0  0  0  0  0  0  0  0  0  0  0  0
   -0.7500    1.2990    0.0000 C   0  0  0  0  0  0  0  0  0  0  0  0
   -1.5000    0.0000    0.0000 C   0  0  0  0  0  0  0  0  0  0  0  0
   -0.7500   -1.2990    0.0000 C   0  0  0  0  0  0  0  0  0  0  0  0
  1  2  2  0
  2  3  1  0
  3  4  2  3
  4  5  1  0
  5  6  1  0
  6  7  1  0
  7  8  2  0
  8  9  1  0
  9 10  2  0
 10 11  1  0
 11 12  1  0
 12 13  2  0
 13 14  1  0
 14 15  2  0
 15 16  1  0
  2 17  1  0
 17 18  1  0
 18 19  1  0
 19 20  2  0
 20 21  1  0
 21 22  2  0
 22 23  1  0
 23 24  2  0
 10  6  1  0
 15 11  1  0
 24 19  1  0
M  END
>  <Title>  (967) 
idABLEgen8

$$$$

     RDKit          2D

 64 73  0  0  0  0  0  0  0  0999 V2000
    3.9786   -1.2990    0.0000 C   0  0  0  0  0  0  0  0  0  0  0  0
    3.2286   -0.0000    0.0000 O   0  0  0  0  0  0  0  0  0  0  0  0
    1.7286    0.0000    0.0000 C   0  0  0  0  0  0  0  0  0  0  0  0
    1.0777    1.3515    0.0000 C   0  0  0  0  0  0  0  0  0  0  0  0
   -0.3846    1.6852    0.0000 C   0  0  0  0  0  0  0  0  0  0  0  0
   -1.5574    0.7500    0.0000 C   0  0  0  0  0  0  0  0  0  0  0  0
   -2.9088    1.4008    0.0000 N   0  0  0  0  0  0  0  0  0  0  0  0
   -3.0209    2.8966    0.0000 C   0  0  0  0  0  0  0  0  0  0  0  0
   -4.3724    3.5475    0.0000 C   0  0  0  0  0  0  0  0  0  0  0  0
   -5.6118    2.7025    0.0000 N   0  0  0  0  0  0  0  0  0  0  0  0
   -6.9632    3.3533    0.0000 C   0  0  0  0  0  0  0  0  0  0  0  0
   -8.2026    2.5083    0.0000 O   0  0  0  0  0  0  0  0  0  0  0  0
   -7.0753    4.8491    0.0000 C   0  0  0  0  0  0  0  0  0  0  0  0
   -5.9311    5.8190    0.0000 N   0  0  0  0  0  0  0  0  0  0  0  0
   -6.4999    7.2070    0.0000 N   0  0  0  0  0  0  0  0  0  0  0  0
   -7.9957    7.0949    0.0000 N   0  0  0  0  0  0  0  0  0  0  0  0
   -8.3513    5.6376    0.0000 N   0  0  0  0  0  0  0  0  0  0  0  0
   -9.7393    5.0688    0.0000 C   0  0  0  0  0  0  0  0  0  0  0  0
  -10.9259    5.9864    0.0000 C   0  0  0  0  0  0  0  0  0  0  0  0
  -12.3138    5.4175    0.0000 C   0  0  0  0  0  0  0  0  0  0  0  0
  -12.5152    3.9311    0.0000 C   0  0  0  0  0  0  0  0  0  0  0  0
  -13.9031    3.3623    0.0000 C   0  0  0  0  0  0  0  0  0  0  0  0
  -15.0898    4.2799    0.0000 C   0  0  0  0  0  0  0  0  0  0  0  0
  -16.4777    3.7110    0.0000 C   0  0  0  0  0  0  0  0  0  0  0  0
  -16.6791    2.2246    0.0000 C   0  0  0  0  0  0  0  0  0  0  0  0
  -15.4925    1.3070    0.0000 C   0  0  0  0  0  0  0  0  0  0  0  0
  -14.1045    1.8759    0.0000 C   0  0  0  0  0  0  0  0  0  0  0  0
  -11.3286    3.0135    0.0000 C   0  0  0  0  0  0  0  0  0  0  0  0
   -9.9406    3.5824    0.0000 C   0  0  0  0  0  0  0  0  0  0  0  0
   -5.4997    1.2067    0.0000 C   0  0  0  0  0  0  0  0  0  0  0  0
   -4.1482    0.5558    0.0000 C   0  0  0  0  0  0  0  0  0  0  0  0
   -4.0361   -0.9400    0.0000 C   0  0  0  0  0  0  0  0  0  0  0  0
   -2.7601   -1.7285    0.0000 N   0  0  0  0  0  0  0  0  0  0  0  0
   -3.1157   -3.1857    0.0000 N   0  0  0  0  0  0  0  0  0  0  0  0
   -4.6115   -3.2978    0.0000 N   0  0  0  0  0  0  0  0  0  0  0  0
   -5.1804   -1.9099    0.0000 N   0  0  0  0  0  0  0  0  0  0  0  0
   -6.6376   -1.5542    0.0000 C   0  0  0  0  0  0  0  0  0  0  0  0
   -7.0582   -0.1144    0.0000 C   0  0  0  0  0  0  0  0  0  0  0  0
   -8.5155    0.2412    0.0000 C   0  0  0  0  0  0  0  0  0  0  0  0
   -9.5521   -0.8430    0.0000 C   0  0  0  0  0  0  0  0  0  0  0  0
  -11.0093   -0.4874    0.0000 C   0  0  0  0  0  0  0  0  0  0  0  0
  -11.4299    0.9524    0.0000 C   0  0  0  0  0  0  0  0  0  0  0  0
  -12.8872    1.3081    0.0000 C   0  0  0  0  0  0  0  0  0  0  0  0
  -13.9238    0.2239    0.0000 C   0  0  0  0  0  0  0  0  0  0  0  0
  -13.5031   -1.2159    0.0000 C   0  0  0  0  0  0  0  0  0  0  0  0
  -12.0459   -1.5716    0.0000 C   0  0  0  0  0  0  0  0  0  0  0  0
   -9.1314   -2.2828    0.0000 C   0  0  0  0  0  0  0  0  0  0  0  0
   -7.6742   -2.6384    0.0000 C   0  0  0  0  0  0  0  0  0  0  0  0
   -7.2535   -4.0782    0.0000 C   0  0  0  0  0  0  0  0  0  0  0  0
   -5.8415   -4.5842    0.0000 N   0  0  0  0  0  0  0  0  0  0  0  0
   -5.8863   -6.0836    0.0000 N   0  0  0  0  0  0  0  0  0  0  0  0
   -7.3261   -6.5042    0.0000 N   0  0  0  0  0  0  0  0  0  0  0  0
   -8.1711   -5.2649    0.0000 N   0  0  0  0  0  0  0  0  0  0  0  0
   -9.6705   -5.2200    0.0000 C   0  0  0  0  0  0  0  0  0  0  0  0
  -10.3813   -3.8991    0.0000 C   0  0  0  0  0  0  0  0  0  0  0  0
  -11.8806   -3.8542    0.0000 C   0  0  0  0  0  0  0  0  0  0  0  0
  -12.6691   -5.1302    0.0000 C   0  0  0  0  0  0  0  0  0  0  0  0
  -14.1684   -5.0854    0.0000 C   0  0  0  0  0  0  0  0  0  0  0  0
  -11.9583   -6.4511    0.0000 C   0  0  0  0  0  0  0  0  0  0  0  0
  -12.7468   -7.7271    0.0000 O   0  0  0  0  0  0  0  0  0  0  0  0
  -10.4590   -6.4960    0.0000 N   0  0  0  0  0  0  0  0  0  0  0  0
   -1.5574   -0.7500    0.0000 N   0  0  0  0  0  0  0  0  0  0  0  0
   -0.3846   -1.6852    0.0000 N   0  0  0  0  0  0  0  0  0  0  0  0
    1.0777   -1.3515    0.0000 C   0  0  0  0  0  0  0  0  0  0  0  0
  1  2  1  0
  2  3  1  0
  3  4  2  0
  4  5  1  0
  5  6  2  0
  6  7  1  0
  7  8  1  0
  8  9  1  0
  9 10  1  0
 10 11  1  0
 11 12  2  0
 11 13  1  0
 13 14  2  0
 14 15  1  0
 15 16  2  0
 16 17  1  0
 17 18  1  0
 18 19  2  0
 19 20  1  0
 20 21  2  0
 21 22  1  0
 22 23  2  0
 23 24  1  0
 24 25  2  0
 25 26  1  0
 26 27  2  0
 21 28  1  0
 28 29  2  0
 10 30  1  0
 30 31  2  0
 31 32  1  0
 32 33  2  0
 33 34  1  0
 34 35  2  0
 35 36  1  0
 36 37  1  0
 37 38  2  0
 38 39  1  0
 39 40  2  0
 40 41  1  0
 41 42  2  0
 42 43  1  0
 43 44  2  0
 44 45  1  0
 45 46  2  0
 40 47  1  0
 47 48  2  0
 48 49  1  0
 49 50  2  0
 50 51  1  0
 51 52  2  0
 52 53  1  0
 53 54  1  0
 54 55  2  0
 55 56  1  0
 56 57  2  0
 57 58  1  0
 57 59  1  0
 59 60  2  0
 59 61  1  0
  6 62  1  0
 62 63  2  0
 63 64  1  0
 64  3  1  0
 31  7  1  0
 36 32  1  0
 48 37  1  0
 53 49  1  0
 61 54  1  0
 17 13  1  0
 29 18  1  0
 46 41  1  0
 27 22  1  0
M  END
>  <Title>  (968) 
idABLFgen8

$$$$

     RDKit          2D

 34 39  0  0  0  0  0  0  0  0999 V2000
    3.0000    0.0000    0.0000 C   0  0  0  0  0  0  0  0  0  0  0  0
    1.5000    0.0000    0.0000 C   0  0  0  0  0  0  0  0  0  0  0  0
    0.7500   -1.2990    0.0000 C   0  0  0  0  0  0  0  0  0  0  0  0
   -0.7500   -1.2990    0.0000 C   0  0  0  0  0  0  0  0  0  0  0  0
   -1.5000    0.0000    0.0000 C   0  0  0  0  0  0  0  0  0  0  0  0
   -3.0000    0.0000    0.0000 C   0  0  0  0  0  0  0  0  0  0  0  0
   -3.8817   -1.2135    0.0000 C   0  0  0  0  0  0  0  0  0  0  0  0
   -5.3083   -0.7500    0.0000 N   0  0  0  0  0  0  0  0  0  0  0  0
   -5.3083    0.7500    0.0000 N   0  0  0  0  0  0  0  0  0  0  0  0
   -3.8817    1.2135    0.0000 N   0  0  0  0  0  0  0  0  0  0  0  0
   -3.4182    2.6401    0.0000 C   0  0  0  0  0  0  0  0  0  0  0  0
   -1.9509    2.9520    0.0000 C   0  0  0  0  0  0  0  0  0  0  0  0
   -1.4874    4.3786    0.0000 C   0  0  0  0  0  0  0  0  0  0  0  0
   -2.4911    5.4933    0.0000 C   0  0  0  0  0  0  0  0  0  0  0  0
   -2.0276    6.9199    0.0000 C   0  0  0  0  0  0  0  0  0  0  0  0
   -2.9093    8.1334    0.0000 N   0  0  0  0  0  0  0  0  0  0  0  0
   -2.0276    9.3469    0.0000 N   0  0  0  0  0  0  0  0  0  0  0  0
   -0.6010    8.8834    0.0000 N   0  0  0  0  0  0  0  0  0  0  0  0
   -0.6010    7.3834    0.0000 N   0  0  0  0  0  0  0  0  0  0  0  0
    0.6125    6.5017    0.0000 C   0  0  0  0  0  0  0  0  0  0  0  0
    0.6125    5.0017    0.0000 N   0  0  0  0  0  0  0  0  0  0  0  0
    2.0391    4.5382    0.0000 N   0  0  0  0  0  0  0  0  0  0  0  0
    2.9208    5.7517    0.0000 N   0  0  0  0  0  0  0  0  0  0  0  0
    2.0391    6.9652    0.0000 N   0  0  0  0  0  0  0  0  0  0  0  0
    2.5026    8.3918    0.0000 C   0  0  0  0  0  0  0  0  0  0  0  0
    3.9699    8.7037    0.0000 C   0  0  0  0  0  0  0  0  0  0  0  0
    4.4334   10.1303    0.0000 C   0  0  0  0  0  0  0  0  0  0  0  0
    3.4297   11.2450    0.0000 C   0  0  0  0  0  0  0  0  0  0  0  0
    1.9625   10.9331    0.0000 C   0  0  0  0  0  0  0  0  0  0  0  0
    1.4989    9.5065    0.0000 C   0  0  0  0  0  0  0  0  0  0  0  0
   -3.9583    5.1814    0.0000 C   0  0  0  0  0  0  0  0  0  0  0  0
   -4.4218    3.7548    0.0000 C   0  0  0  0  0  0  0  0  0  0  0  0
   -0.7500    1.2990    0.0000 C   0  0  0  0  0  0  0  0  0  0  0  0
    0.7500    1.2990    0.0000 C   0  0  0  0  0  0  0  0  0  0  0  0
  1  2  1  0
  2  3  2  0
  3  4  1  0
  4  5  2  0
  5  6  1  0
  6  7  2  0
  7  8  1  0
  8  9  2  0
  9 10  1  0
 10 11  1  0
 11 12  2  0
 12 13  1  0
 13 14  2  0
 14 15  1  0
 15 16  2  0
 16 17  1  0
 17 18  2  0
 18 19  1  0
 19 20  1  0
 20 21  2  0
 21 22  1  0
 22 23  2  0
 23 24  1  0
 24 25  1  0
 25 26  2  0
 26 27  1  0
 27 28  2  0
 28 29  1  0
 29 30  2  0
 14 31  1  0
 31 32  2  0
  5 33  1  0
 33 34  2  0
 34  2  1  0
 10  6  1  0
 32 11  1  0
 19 15  1  0
 24 20  1  0
 30 25  1  0
M  END
>  <Title>  (969) 
idABLGgen8

$$$$

     RDKit          2D

 13 13  0  0  0  0  0  0  0  0999 V2000
    4.3978    0.0000    0.0000 O   0  0  0  0  0  0  0  0  0  0  0  0
    2.8978    0.0000    0.0000 C   0  0  0  0  0  0  0  0  0  0  0  0
    2.5095   -1.4489    0.0000 C   0  0  0  0  0  0  0  0  0  0  0  0
    1.4489   -2.5095    0.0000 C   0  0  0  0  0  0  0  0  0  0  0  0
   -0.0000   -2.8978    0.0000 C   0  0  0  0  0  0  0  0  0  0  0  0
   -1.4489   -2.5095    0.0000 C   0  0  0  0  0  0  0  0  0  0  0  0
   -2.5095   -1.4489    0.0000 C   0  0  0  0  0  0  0  0  0  0  0  0
   -2.8978    0.0000    0.0000 C   0  0  0  0  0  0  0  0  0  0  0  0
   -2.5095    1.4489    0.0000 C   0  0  0  0  0  0  0  0  0  0  0  0
   -1.4489    2.5095    0.0000 C   0  0  0  0  0  0  0  0  0  0  0  0
    0.0000    2.8978    0.0000 C   0  0  0  0  0  0  0  0  0  0  0  0
    1.4489    2.5095    0.0000 C   0  0  0  0  0  0  0  0  0  0  0  0
    2.5095    1.4489    0.0000 C   0  0  0  0  0  0  0  0  0  0  0  0
  1  2  1  0
  2  3  2  0
  3  4  1  0
  4  5  2  0
  5  6  1  0
  6  7  2  0
  7  8  1  0
  8  9  2  0
  9 10  1  0
 10 11  2  0
 11 12  1  0
 12 13  2  0
 13  2  1  0
M  END
>  <Title>  (970) 
idABLHgen8

$$$$

     RDKit          2D

 30 32  0  0  0  0  0  0  0  0999 V2000
    6.1771   -1.2990    0.0000 C   0  0  0  0  0  0  0  0  0  0  0  0
    4.6771   -1.2990    0.0000 C   0  0  0  0  0  0  0  0  0  0  0  0
    3.9271   -2.5981    0.0000 O   0  0  0  0  0  0  0  0  0  0  0  0
    3.9271    0.0000    0.0000 O   0  0  0  0  0  0  0  0  0  0  0  0
    2.4271    0.0000    0.0000 C   0  0  0  0  0  0  0  0  0  0  0  0
    1.9635   -1.4266    0.0000 C   0  0  0  0  0  0  0  0  0  0  0  0
    0.7500   -2.3083    0.0000 C   0  0  0  0  0  0  0  0  0  0  0  0
   -0.7500   -2.3083    0.0000 C   0  0  0  0  0  0  0  0  0  0  0  0
   -1.9635   -1.4266    0.0000 C   0  0  0  0  0  0  0  0  0  0  0  0
   -2.4271    0.0000    0.0000 C   0  0  0  0  0  0  0  0  0  0  0  0
   -1.9635    1.4266    0.0000 C   0  0  0  0  0  0  0  0  0  0  0  0
   -0.7500    2.3083    0.0000 C   0  0  0  0  0  0  0  0  0  0  0  0
   -1.2135    3.7348    0.0000 C   0  0  0  0  0  0  0  0  0  0  0  0
   -2.6807    4.0467    0.0000 O   0  0  0  0  0  0  0  0  0  0  0  0
   -0.2098    4.8496    0.0000 N   0  0  0  0  0  0  0  0  0  0  0  0
   -0.6734    6.2761    0.0000 C   0  0  0  0  0  0  0  0  0  0  0  0
   -2.0999    6.7397    0.0000 N   0  0  0  0  0  0  0  0  0  0  0  0
   -2.0999    8.2397    0.0000 N   0  0  0  0  0  0  0  0  0  0  0  0
   -0.6734    8.7032    0.0000 N   0  0  0  0  0  0  0  0  0  0  0  0
    0.2083    7.4897    0.0000 N   0  0  0  0  0  0  0  0  0  0  0  0
    1.7083    7.4897    0.0000 C   0  0  0  0  0  0  0  0  0  0  0  0
    2.4583    6.1906    0.0000 C   0  0  0  0  0  0  0  0  0  0  0  0
    3.9583    6.1906    0.0000 C   0  0  0  0  0  0  0  0  0  0  0  0
    4.7083    7.4897    0.0000 C   0  0  0  0  0  0  0  0  0  0  0  0
    6.2083    7.4897    0.0000 C   0  0  0  0  0  0  0  0  0  0  0  0
    3.9583    8.7887    0.0000 C   0  0  0  0  0  0  0  0  0  0  0  0
    4.7083   10.0878    0.0000 O   0  0  0  0  0  0  0  0  0  0  0  0
    2.4583    8.7887    0.0000 N   0  0  0  0  0  0  0  0  0  0  0  0
    0.7500    2.3083    0.0000 N   0  0  0  0  0  0  0  0  0  0  0  0
    1.9635    1.4266    0.0000 C   0  0  0  0  0  0  0  0  0  0  0  0
  1  2  1  0
  2  3  2  0
  2  4  1  0
  4  5  1  0
  5  6  2  0
  6  7  1  0
  7  8  2  0
  8  9  1  0
  9 10  2  0
 10 11  1  0
 11 12  2  0
 12 13  1  0
 13 14  2  0
 13 15  1  0
 15 16  1  0
 16 17  2  0
 17 18  1  0
 18 19  2  0
 19 20  1  0
 20 21  1  0
 21 22  2  0
 22 23  1  0
 23 24  2  0
 24 25  1  0
 24 26  1  0
 26 27  2  0
 26 28  1  0
 12 29  1  0
 29 30  2  0
 30  5  1  0
 20 16  1  0
 28 21  1  0
M  END
>  <Title>  (971) 
idABLIgen8

$$$$

     RDKit          2D

 24 24  0  0  0  0  0  0  0  0999 V2000
    7.5200   -1.2990    0.0000 C   0  0  0  0  0  0  0  0  0  0  0  0
    6.7700    0.0000    0.0000 O   0  0  0  0  0  0  0  0  0  0  0  0
    5.2700    0.0000    0.0000 C   0  0  0  0  0  0  0  0  0  0  0  0
    5.0565   -1.4847    0.0000 C   0  0  0  0  0  0  0  0  0  0  0  0
    4.4334   -2.8492    0.0000 C   0  0  0  0  0  0  0  0  0  0  0  0
    3.4511   -3.9828    0.0000 C   0  0  0  0  0  0  0  0  0  0  0  0
    2.1892   -4.7938    0.0000 C   0  0  0  0  0  0  0  0  0  0  0  0
    0.7500   -5.2164    0.0000 C   0  0  0  0  0  0  0  0  0  0  0  0
   -0.7500   -5.2164    0.0000 C   0  0  0  0  0  0  0  0  0  0  0  0
   -2.1892   -4.7938    0.0000 C   0  0  0  0  0  0  0  0  0  0  0  0
   -3.4511   -3.9828    0.0000 C   0  0  0  0  0  0  0  0  0  0  0  0
   -4.4334   -2.8492    0.0000 C   0  0  0  0  0  0  0  0  0  0  0  0
   -5.0565   -1.4847    0.0000 C   0  0  0  0  0  0  0  0  0  0  0  0
   -5.2700    0.0000    0.0000 C   0  0  0  0  0  0  0  0  0  0  0  0
   -5.0565    1.4847    0.0000 C   0  0  0  0  0  0  0  0  0  0  0  0
   -4.4334    2.8492    0.0000 C   0  0  0  0  0  0  0  0  0  0  0  0
   -3.4511    3.9828    0.0000 C   0  0  0  0  0  0  0  0  0  0  0  0
   -2.1892    4.7938    0.0000 C   0  0  0  0  0  0  0  0  0  0  0  0
   -0.7500    5.2164    0.0000 C   0  0  0  0  0  0  0  0  0  0  0  0
    0.7500    5.2164    0.0000 C   0  0  0  0  0  0  0  0  0  0  0  0
    2.1892    4.7938    0.0000 C   0  0  0  0  0  0  0  0  0  0  0  0
    3.4511    3.9828    0.0000 C   0  0  0  0  0  0  0  0  0  0  0  0
    4.4334    2.8492    0.0000 C   0  0  0  0  0  0  0  0  0  0  0  0
    5.0565    1.4847    0.0000 C   0  0  0  0  0  0  0  0  0  0  0  0
  1  2  1  0
  2  3  1  0
  3  4  2  0
  4  5  1  0
  5  6  2  0
  6  7  1  0
  7  8  2  0
  8  9  1  0
  9 10  2  0
 10 11  1  0
 11 12  2  0
 12 13  1  0
 13 14  2  0
 14 15  1  0
 15 16  2  0
 16 17  1  0
 17 18  2  0
 18 19  1  0
 19 20  2  0
 20 21  1  0
 21 22  2  0
 22 23  1  0
 23 24  2  0
 24  3  1  0
M  END
>  <Title>  (972) 
idABLJgen8

$$$$

     RDKit          2D

 44 50  0  0  0  0  0  0  0  0999 V2000
    3.0000    0.0000    0.0000 C   0  0  0  0  0  0  0  0  0  0  0  0
    1.5000    0.0000    0.0000 C   0  0  0  0  0  0  0  0  0  0  0  0
    0.7500   -1.2990    0.0000 C   0  0  0  0  0  0  0  0  0  0  0  0
   -0.7500   -1.2990    0.0000 C   0  0  0  0  0  0  0  0  0  0  0  0
   -1.5000    0.0000    0.0000 C   0  0  0  0  0  0  0  0  0  0  0  0
   -3.0000    0.0000    0.0000 C   0  0  0  0  0  0  0  0  0  0  0  0
   -3.7500   -1.2990    0.0000 O   0  0  0  0  0  0  0  0  0  0  0  0
   -3.7500    1.2990    0.0000 N   0  0  0  0  0  0  0  0  0  0  0  0
   -5.2500    1.2990    0.0000 C   0  0  0  0  0  0  0  0  0  0  0  0
   -6.1317    0.0855    0.0000 N   0  0  0  0  0  0  0  0  0  0  0  0
   -7.5583    0.5490    0.0000 N   0  0  0  0  0  0  0  0  0  0  0  0
   -7.5583    2.0490    0.0000 N   0  0  0  0  0  0  0  0  0  0  0  0
   -6.1317    2.5126    0.0000 N   0  0  0  0  0  0  0  0  0  0  0  0
   -5.6682    3.9391    0.0000 C   0  0  0  0  0  0  0  0  0  0  0  0
   -4.2009    4.2510    0.0000 C   0  0  0  0  0  0  0  0  0  0  0  0
   -3.7374    5.6776    0.0000 C   0  0  0  0  0  0  0  0  0  0  0  0
   -4.7411    6.7923    0.0000 C   0  0  0  0  0  0  0  0  0  0  0  0
   -4.2776    8.2189    0.0000 C   0  0  0  0  0  0  0  0  0  0  0  0
   -5.1593    9.4324    0.0000 N   0  0  0  0  0  0  0  0  0  0  0  0
   -4.2776   10.6460    0.0000 N   0  0  0  0  0  0  0  0  0  0  0  0
   -2.8510   10.1824    0.0000 N   0  0  0  0  0  0  0  0  0  0  0  0
   -2.8510    8.6824    0.0000 N   0  0  0  0  0  0  0  0  0  0  0  0
   -1.6375    7.8008    0.0000 C   0  0  0  0  0  0  0  0  0  0  0  0
   -1.7943    6.3090    0.0000 C   0  0  0  0  0  0  0  0  0  0  0  0
   -0.5807    5.4273    0.0000 C   0  0  0  0  0  0  0  0  0  0  0  0
    0.7896    6.0374    0.0000 C   0  0  0  0  0  0  0  0  0  0  0  0
    2.0031    5.1557    0.0000 C   0  0  0  0  0  0  0  0  0  0  0  0
    1.8463    3.6639    0.0000 C   0  0  0  0  0  0  0  0  0  0  0  0
    3.0598    2.7823    0.0000 C   0  0  0  0  0  0  0  0  0  0  0  0
    4.4302    3.3924    0.0000 C   0  0  0  0  0  0  0  0  0  0  0  0
    4.5870    4.8841    0.0000 C   0  0  0  0  0  0  0  0  0  0  0  0
    3.3734    5.7658    0.0000 C   0  0  0  0  0  0  0  0  0  0  0  0
    0.9464    7.5292    0.0000 C   0  0  0  0  0  0  0  0  0  0  0  0
   -0.2671    8.4109    0.0000 C   0  0  0  0  0  0  0  0  0  0  0  0
   -0.1104    9.9026    0.0000 C   0  0  0  0  0  0  0  0  0  0  0  0
    1.2600   10.5127    0.0000 C   0  0  0  0  0  0  0  0  0  0  0  0
    1.4168   12.0045    0.0000 C   0  0  0  0  0  0  0  0  0  0  0  0
    0.2032   12.8862    0.0000 C   0  0  0  0  0  0  0  0  0  0  0  0
   -1.1671   12.2761    0.0000 C   0  0  0  0  0  0  0  0  0  0  0  0
   -1.3239   10.7843    0.0000 C   0  0  0  0  0  0  0  0  0  0  0  0
   -6.2083    6.4805    0.0000 C   0  0  0  0  0  0  0  0  0  0  0  0
   -6.6718    5.0539    0.0000 C   0  0  0  0  0  0  0  0  0  0  0  0
   -0.7500    1.2990    0.0000 C   0  0  0  0  0  0  0  0  0  0  0  0
    0.7500    1.2990    0.0000 C   0  0  0  0  0  0  0  0  0  0  0  0
  1  2  1  0
  2  3  2  0
  3  4  1  0
  4  5  2  0
  5  6  1  0
  6  7  2  0
  6  8  1  0
  8  9  1  0
  9 10  2  0
 10 11  1  0
 11 12  2  0
 12 13  1  0
 13 14  1  0
 14 15  2  0
 15 16  1  0
 16 17  2  0
 17 18  1  0
 18 19  2  0
 19 20  1  0
 20 21  2  0
 21 22  1  0
 22 23  1  0
 23 24  2  0
 24 25  1  0
 25 26  2  0
 26 27  1  0
 27 28  2  0
 28 29  1  0
 29 30  2  0
 30 31  1  0
 31 32  2  0
 26 33  1  0
 33 34  2  0
 34 35  1  0
 35 36  2  0
 36 37  1  0
 37 38  2  0
 38 39  1  0
 39 40  2  0
 17 41  1  0
 41 42  2  0
  5 43  1  0
 43 44  2  0
 44  2  1  0
 13  9  1  0
 42 14  1  0
 22 18  1  0
 34 23  1  0
 40 35  1  0
 32 27  1  0
M  END
>  <Title>  (973) 
idABLKgen8

$$$$

     RDKit          2D

 36 39  0  0  0  0  0  0  0  0999 V2000
    3.4598   -0.0000    0.0000 C   0  0  0  0  0  0  0  0  0  0  0  0
    1.9598    0.0000    0.0000 C   0  0  0  0  0  0  0  0  0  0  0  0
    1.3858   -1.3858    0.0000 C   0  0  0  0  0  0  0  0  0  0  0  0
   -0.0000   -1.9598    0.0000 C   0  0  0  0  0  0  0  0  0  0  0  0
   -1.3858   -1.3858    0.0000 C   0  0  0  0  0  0  0  0  0  0  0  0
   -2.4465   -2.4465    0.0000 C   0  0  0  0  0  0  0  0  0  0  0  0
   -3.8954   -2.0583    0.0000 C   0  0  0  0  0  0  0  0  0  0  0  0
   -4.9560   -3.1189    0.0000 C   0  0  0  0  0  0  0  0  0  0  0  0
   -4.5678   -4.5678    0.0000 C   0  0  0  0  0  0  0  0  0  0  0  0
   -5.6285   -5.6285    0.0000 C   0  0  0  0  0  0  0  0  0  0  0  0
   -5.2402   -7.0773    0.0000 O   0  0  0  0  0  0  0  0  0  0  0  0
   -7.0773   -5.2402    0.0000 N   0  0  0  0  0  0  0  0  0  0  0  0
   -8.1380   -6.3009    0.0000 O   0  0  0  0  0  0  0  0  0  0  0  0
   -3.1189   -4.9560    0.0000 C   0  0  0  0  0  0  0  0  0  0  0  0
   -2.0583   -3.8954    0.0000 C   0  0  0  0  0  0  0  0  0  0  0  0
   -1.9598    0.0000    0.0000 C   0  0  0  0  0  0  0  0  0  0  0  0
   -3.4598    0.0000    0.0000 C   0  0  0  0  0  0  0  0  0  0  0  0
   -4.3415   -1.2135    0.0000 N   0  0  0  0  0  0  0  0  0  0  0  0
   -5.7681   -0.7500    0.0000 N   0  0  0  0  0  0  0  0  0  0  0  0
   -5.7681    0.7500    0.0000 N   0  0  0  0  0  0  0  0  0  0  0  0
   -4.3415    1.2135    0.0000 N   0  0  0  0  0  0  0  0  0  0  0  0
   -3.8780    2.6401    0.0000 C   0  0  0  0  0  0  0  0  0  0  0  0
   -2.4108    2.9520    0.0000 C   0  0  0  0  0  0  0  0  0  0  0  0
   -1.9472    4.3786    0.0000 C   0  0  0  0  0  0  0  0  0  0  0  0
   -2.9509    5.4933    0.0000 C   0  0  0  0  0  0  0  0  0  0  0  0
   -2.4874    6.9199    0.0000 C   0  0  0  0  0  0  0  0  0  0  0  0
   -4.4182    5.1814    0.0000 N   0  0  0  0  0  0  0  0  0  0  0  0
   -4.8817    3.7548    0.0000 C   0  0  0  0  0  0  0  0  0  0  0  0
   -6.3489    3.4430    0.0000 O   0  0  0  0  0  0  0  0  0  0  0  0
   -1.3858    1.3858    0.0000 C   0  0  0  0  0  0  0  0  0  0  0  0
    0.0000    1.9598    0.0000 C   0  0  0  0  0  0  0  0  0  0  0  0
    1.3858    1.3858    0.0000 C   0  0  0  0  0  0  0  0  0  0  0  0
    2.4465    2.4465    0.0000 C   0  0  0  0  0  0  0  0  0  0  0  0
    3.8954    2.0583    0.0000 O   0  0  0  0  0  0  0  0  0  0  0  0
    2.0583    3.8954    0.0000 N   0  0  0  0  0  0  0  0  0  0  0  0
    3.1189    4.9560    0.0000 O   0  0  0  0  0  0  0  0  0  0  0  0
  1  2  1  0
  2  3  2  0
  3  4  1  0
  4  5  2  0
  5  6  1  0
  6  7  2  0
  7  8  1  0
  8  9  2  0
  9 10  1  0
 10 11  2  0
 10 12  1  0
 12 13  1  0
  9 14  1  0
 14 15  1  0
  5 16  1  0
 16 17  1  0
 17 18  2  0
 18 19  1  0
 19 20  2  0
 20 21  1  0
 21 22  1  0
 22 23  2  0
 23 24  1  0
 24 25  2  0
 25 26  1  0
 25 27  1  0
 27 28  1  0
 28 29  2  0
 16 30  2  0
 30 31  1  0
 31 32  2  0
 32 33  1  0
 33 34  2  0
 33 35  1  0
 35 36  1  0
 32  2  1  0
 15  6  1  0
 21 17  1  0
 28 22  1  0
M  END
>  <Title>  (974) 
idABLLgen8

$$$$

     RDKit          2D

 34 38  0  0  0  0  0  0  0  0999 V2000
  -10.1624    4.2767    0.0000 C   0  0  0  0  0  0  0  0  0  0  0  0
   -8.9488    3.3950    0.0000 C   0  0  0  0  0  0  0  0  0  0  0  0
   -9.1056    1.9033    0.0000 C   0  0  0  0  0  0  0  0  0  0  0  0
   -7.8921    1.0216    0.0000 C   0  0  0  0  0  0  0  0  0  0  0  0
   -6.5218    1.6317    0.0000 C   0  0  0  0  0  0  0  0  0  0  0  0
   -5.3083    0.7500    0.0000 C   0  0  0  0  0  0  0  0  0  0  0  0
   -5.3083   -0.7500    0.0000 N   0  0  0  0  0  0  0  0  0  0  0  0
   -3.8817   -1.2135    0.0000 N   0  0  0  0  0  0  0  0  0  0  0  0
   -3.0000    0.0000    0.0000 N   0  0  0  0  0  0  0  0  0  0  0  0
   -3.8817    1.2135    0.0000 N   0  0  0  0  0  0  0  0  0  0  0  0
   -3.4182    2.6401    0.0000 C   0  0  0  0  0  0  0  0  0  0  0  0
   -4.2998    3.8536    0.0000 C   0  0  0  0  0  0  0  0  0  0  0  0
   -3.4182    5.0672    0.0000 C   0  0  0  0  0  0  0  0  0  0  0  0
   -1.9916    4.6036    0.0000 C   0  0  0  0  0  0  0  0  0  0  0  0
   -0.7780    5.4853    0.0000 C   0  0  0  0  0  0  0  0  0  0  0  0
   -0.7780    6.9853    0.0000 N   0  0  0  0  0  0  0  0  0  0  0  0
    0.6485    7.4488    0.0000 N   0  0  0  0  0  0  0  0  0  0  0  0
    1.5302    6.2353    0.0000 N   0  0  0  0  0  0  0  0  0  0  0  0
    0.6485    5.0218    0.0000 N   0  0  0  0  0  0  0  0  0  0  0  0
    1.1121    3.5952    0.0000 C   0  0  0  0  0  0  0  0  0  0  0  0
    0.1084    2.4805    0.0000 C   0  0  0  0  0  0  0  0  0  0  0  0
    0.5719    1.0539    0.0000 C   0  0  0  0  0  0  0  0  0  0  0  0
    2.0391    0.7420    0.0000 C   0  0  0  0  0  0  0  0  0  0  0  0
    2.5026   -0.6846    0.0000 C   0  0  0  0  0  0  0  0  0  0  0  0
    1.4989   -1.7993    0.0000 O   0  0  0  0  0  0  0  0  0  0  0  0
    3.9699   -0.9964    0.0000 N   0  0  0  0  0  0  0  0  0  0  0  0
    4.4334   -2.4230    0.0000 O   0  0  0  0  0  0  0  0  0  0  0  0
    3.0428    1.8568    0.0000 C   0  0  0  0  0  0  0  0  0  0  0  0
    2.5793    3.2833    0.0000 C   0  0  0  0  0  0  0  0  0  0  0  0
   -1.9916    3.1036    0.0000 C   0  0  0  0  0  0  0  0  0  0  0  0
   -0.7780    2.2220    0.0000 O   0  0  0  0  0  0  0  0  0  0  0  0
   -6.3650    3.1235    0.0000 N   0  0  0  0  0  0  0  0  0  0  0  0
   -7.5785    4.0051    0.0000 C   0  0  0  0  0  0  0  0  0  0  0  0
   -7.4217    5.4969    0.0000 O   0  0  0  0  0  0  0  0  0  0  0  0
  1  2  1  0
  2  3  2  0
  3  4  1  0
  4  5  2  0
  5  6  1  0
  6  7  2  0
  7  8  1  0
  8  9  2  0
  9 10  1  0
 10 11  1  0
 11 12  2  0
 12 13  1  0
 13 14  2  0
 14 15  1  0
 15 16  2  0
 16 17  1  0
 17 18  2  0
 18 19  1  0
 19 20  1  0
 20 21  2  0
 21 22  1  0
 22 23  2  0
 23 24  1  0
 24 25  2  0
 24 26  1  0
 26 27  1  0
 23 28  1  0
 28 29  1  0
 14 30  1  0
 30 31  2  0
  5 32  1  0
 32 33  1  0
 33 34  2  0
 33  2  1  0
 10  6  1  0
 30 11  1  0
 19 15  1  0
 29 20  1  0
M  END
>  <Title>  (975) 
idABLMgen8

$$$$

     RDKit          2D

 28 30  0  0  0  0  0  0  0  0999 V2000
   -3.7466    1.4380    0.0000 C   0  0  0  0  0  0  0  0  0  0  0  0
   -3.2831    0.0114    0.0000 C   0  0  0  0  0  0  0  0  0  0  0  0
   -4.5821   -0.7386    0.0000 C   0  0  0  0  0  0  0  0  0  0  0  0
   -5.4638   -1.9521    0.0000 C   0  0  0  0  0  0  0  0  0  0  0  0
   -5.7757   -3.4194    0.0000 C   0  0  0  0  0  0  0  0  0  0  0  0
   -5.4638   -4.8866    0.0000 C   0  0  0  0  0  0  0  0  0  0  0  0
   -6.8341   -5.4967    0.0000 F   0  0  0  0  0  0  0  0  0  0  0  0
   -4.5821   -6.1001    0.0000 C   0  0  0  0  0  0  0  0  0  0  0  0
   -5.5858   -7.2148    0.0000 F   0  0  0  0  0  0  0  0  0  0  0  0
   -3.2831   -6.8501    0.0000 C   0  0  0  0  0  0  0  0  0  0  0  0
   -1.7913   -7.0069    0.0000 C   0  0  0  0  0  0  0  0  0  0  0  0
   -0.3647   -6.5434    0.0000 C   0  0  0  0  0  0  0  0  0  0  0  0
    0.7500   -5.5397    0.0000 C   0  0  0  0  0  0  0  0  0  0  0  0
    1.3601   -4.1694    0.0000 C   0  0  0  0  0  0  0  0  0  0  0  0
    1.3601   -2.6694    0.0000 C   0  0  0  0  0  0  0  0  0  0  0  0
    0.7500   -1.2990    0.0000 C   0  0  0  0  0  0  0  0  0  0  0  0
    1.5000    0.0000    0.0000 C   0  0  0  0  0  0  0  0  0  0  0  0
    0.7500    1.2990    0.0000 C   0  0  0  0  0  0  0  0  0  0  0  0
   -0.7500    1.2990    0.0000 C   0  0  0  0  0  0  0  0  0  0  0  0
   -1.5000    0.0000    0.0000 C   0  0  0  0  0  0  0  0  0  0  0  0
   -0.7500   -1.2990    0.0000 N   0  0  0  0  0  0  0  0  0  0  0  0
   -1.5000   -2.5981    0.0000 C   0  0  0  0  0  0  0  0  0  0  0  0
   -0.7500   -3.8971    0.0000 C   0  0  0  0  0  0  0  0  0  0  0  0
   -1.5000   -5.1962    0.0000 C   0  0  0  0  0  0  0  0  0  0  0  0
   -3.0000   -5.1962    0.0000 C   0  0  0  0  0  0  0  0  0  0  0  0
   -3.7500   -3.8971    0.0000 C   0  0  0  0  0  0  0  0  0  0  0  0
   -3.0000   -2.5981    0.0000 C   0  0  0  0  0  0  0  0  0  0  0  0
   -3.7500   -1.2990    0.0000 C   0  0  0  0  0  0  0  0  0  0  0  0
  1  2  1  0
  2  3  2  0
  3  4  1  0
  4  5  2  0
  5  6  2  0
  6  7  1  0
  6  8  1  0
  8  9  1  0
  8 10  2  0
 10 11  1  0
 11 12  2  0
 12 13  1  0
 13 14  2  0
 14 15  1  0
 15 16  2  0
 16 17  1  0
 17 18  2  0
 18 19  1  0
 19 20  2  0
 20 21  1  0
 21 22  1  0
 22 23  2  0
 23 24  1  0
 24 25  2  0
 25 26  1  0
 26 27  2  0
 27 28  1  0
 20  2  1  0
 27 22  1  0
 21 16  1  0
M  END
>  <Title>  (976) 
idABLNgen8

$$$$

     RDKit          2D

 25 28  0  0  0  0  0  0  0  0999 V2000
    3.7500   -1.2990    0.0000 C   0  0  0  0  0  0  0  0  0  0  0  0
    3.0000    0.0000    0.0000 O   0  0  0  0  0  0  0  0  0  0  0  0
    1.5000    0.0000    0.0000 C   0  0  0  0  0  0  0  0  0  0  0  0
    0.7500   -1.2990    0.0000 C   0  0  0  0  0  0  0  0  0  0  0  0
   -0.7500   -1.2990    0.0000 C   0  0  0  0  0  0  0  0  0  0  0  0
   -1.5000    0.0000    0.0000 C   0  0  0  0  0  0  0  0  0  0  0  0
   -3.0000    0.0000    0.0000 C   0  0  0  0  0  0  0  0  0  0  0  0
   -3.8817   -1.2135    0.0000 N   0  0  0  0  0  0  0  0  0  0  0  0
   -5.3083   -0.7500    0.0000 N   0  0  0  0  0  0  0  0  0  0  0  0
   -5.3083    0.7500    0.0000 N   0  0  0  0  0  0  0  0  0  0  0  0
   -3.8817    1.2135    0.0000 N   0  0  0  0  0  0  0  0  0  0  0  0
   -3.4182    2.6401    0.0000 C   0  0  0  0  0  0  0  0  0  0  0  0
   -4.2998    3.8536    0.0000 C   0  0  0  0  0  0  0  0  0  0  0  0
   -3.4182    5.0672    0.0000 C   0  0  0  0  0  0  0  0  0  0  0  0
   -1.9916    4.6036    0.0000 C   0  0  0  0  0  0  0  0  0  0  0  0
   -0.7780    5.4853    0.0000 C   0  0  0  0  0  0  0  0  0  0  0  0
    0.5923    4.8752    0.0000 C   0  0  0  0  0  0  0  0  0  0  0  0
    1.8058    5.7569    0.0000 C   0  0  0  0  0  0  0  0  0  0  0  0
    1.6490    7.2487    0.0000 C   0  0  0  0  0  0  0  0  0  0  0  0
    0.2787    7.8588    0.0000 C   0  0  0  0  0  0  0  0  0  0  0  0
   -0.9348    6.9771    0.0000 C   0  0  0  0  0  0  0  0  0  0  0  0
   -1.9916    3.1036    0.0000 C   0  0  0  0  0  0  0  0  0  0  0  0
   -0.7780    2.2220    0.0000 O   0  0  0  0  0  0  0  0  0  0  0  0
   -0.7500    1.2990    0.0000 C   0  0  0  0  0  0  0  0  0  0  0  0
    0.7500    1.2990    0.0000 C   0  0  0  0  0  0  0  0  0  0  0  0
  1  2  1  0
  2  3  1  0
  3  4  2  0
  4  5  1  0
  5  6  2  0
  6  7  1  0
  7  8  2  0
  8  9  1  0
  9 10  2  0
 10 11  1  0
 11 12  1  0
 12 13  2  0
 13 14  1  0
 14 15  2  0
 15 16  1  0
 16 17  2  0
 17 18  1  0
 18 19  2  0
 19 20  1  0
 20 21  2  0
 15 22  1  0
 22 23  2  0
  6 24  1  0
 24 25  2  0
 25  3  1  0
 11  7  1  0
 22 12  1  0
 21 16  1  0
M  END
>  <Title>  (977) 
idABLOgen8

$$$$

     RDKit          2D

 38 43  0  0  0  0  0  0  0  0999 V2000
    3.0000    0.0000    0.0000 C   0  0  0  0  0  0  0  0  0  0  0  0
    1.5000    0.0000    0.0000 C   0  0  0  0  0  0  0  0  0  0  0  0
    0.7500   -1.2990    0.0000 C   0  0  0  0  0  0  0  0  0  0  0  0
   -0.7500   -1.2990    0.0000 C   0  0  0  0  0  0  0  0  0  0  0  0
   -1.5000    0.0000    0.0000 C   0  0  0  0  0  0  0  0  0  0  0  0
   -3.0000    0.0000    0.0000 C   0  0  0  0  0  0  0  0  0  0  0  0
   -3.8817   -1.2135    0.0000 N   0  0  0  0  0  0  0  0  0  0  0  0
   -5.3083   -0.7500    0.0000 N   0  0  0  0  0  0  0  0  0  0  0  0
   -5.3083    0.7500    0.0000 N   0  0  0  0  0  0  0  0  0  0  0  0
   -3.8817    1.2135    0.0000 N   0  0  0  0  0  0  0  0  0  0  0  0
   -3.4182    2.6401    0.0000 C   0  0  0  0  0  0  0  0  0  0  0  0
   -4.2998    3.8536    0.0000 C   0  0  0  0  0  0  0  0  0  0  0  0
   -3.4182    5.0672    0.0000 C   0  0  0  0  0  0  0  0  0  0  0  0
   -1.9916    4.6036    0.0000 C   0  0  0  0  0  0  0  0  0  0  0  0
   -0.7780    5.4853    0.0000 C   0  0  0  0  0  0  0  0  0  0  0  0
   -0.9348    6.9771    0.0000 O   0  0  0  0  0  0  0  0  0  0  0  0
    0.5923    4.8752    0.0000 N   0  0  0  0  0  0  0  0  0  0  0  0
    1.8058    5.7569    0.0000 C   0  0  0  0  0  0  0  0  0  0  0  0
    1.8058    7.2569    0.0000 N   0  0  0  0  0  0  0  0  0  0  0  0
    3.2324    7.7204    0.0000 N   0  0  0  0  0  0  0  0  0  0  0  0
    4.1141    6.5069    0.0000 N   0  0  0  0  0  0  0  0  0  0  0  0
    3.2324    5.2934    0.0000 N   0  0  0  0  0  0  0  0  0  0  0  0
    3.6959    3.8668    0.0000 C   0  0  0  0  0  0  0  0  0  0  0  0
    2.6922    2.7521    0.0000 C   0  0  0  0  0  0  0  0  0  0  0  0
    3.1557    1.3255    0.0000 C   0  0  0  0  0  0  0  0  0  0  0  0
    4.6230    1.0136    0.0000 C   0  0  0  0  0  0  0  0  0  0  0  0
    5.6267    2.1283    0.0000 N   0  0  0  0  0  0  0  0  0  0  0  0
    5.1631    3.5549    0.0000 C   0  0  0  0  0  0  0  0  0  0  0  0
    6.1668    4.6696    0.0000 C   0  0  0  0  0  0  0  0  0  0  0  0
    7.6341    4.3578    0.0000 C   0  0  0  0  0  0  0  0  0  0  0  0
    8.6377    5.4725    0.0000 C   0  0  0  0  0  0  0  0  0  0  0  0
    8.1742    6.8991    0.0000 C   0  0  0  0  0  0  0  0  0  0  0  0
    6.7070    7.2109    0.0000 C   0  0  0  0  0  0  0  0  0  0  0  0
    5.7033    6.0962    0.0000 C   0  0  0  0  0  0  0  0  0  0  0  0
   -1.9916    3.1036    0.0000 C   0  0  0  0  0  0  0  0  0  0  0  0
   -0.7780    2.2220    0.0000 O   0  0  0  0  0  0  0  0  0  0  0  0
   -0.7500    1.2990    0.0000 C   0  0  0  0  0  0  0  0  0  0  0  0
    0.7500    1.2990    0.0000 C   0  0  0  0  0  0  0  0  0  0  0  0
  1  2  1  0
  2  3  2  0
  3  4  1  0
  4  5  2  0
  5  6  1  0
  6  7  2  0
  7  8  1  0
  8  9  2  0
  9 10  1  0
 10 11  1  0
 11 12  2  0
 12 13  1  0
 13 14  2  0
 14 15  1  0
 15 16  2  0
 15 17  1  0
 17 18  1  0
 18 19  2  0
 19 20  1  0
 20 21  2  0
 21 22  1  0
 22 23  1  0
 23 24  2  0
 24 25  1  0
 25 26  2  0
 26 27  1  0
 27 28  2  0
 28 29  1  0
 29 30  2  0
 30 31  1  0
 31 32  2  0
 32 33  1  0
 33 34  2  0
 14 35  1  0
 35 36  2  0
  5 37  1  0
 37 38  2  0
 38  2  1  0
 10  6  1  0
 35 11  1  0
 22 18  1  0
 28 23  1  0
 34 29  1  0
M  END
>  <Title>  (978) 
idABLPgen8

$$$$

     RDKit          2D

 11 11  0  0  0  0  0  0  0  0999 V2000
    3.4598   -0.0000    0.0000 C   0  0  0  0  0  0  0  0  0  0  0  0
    1.9598    0.0000    0.0000 C   0  0  0  0  0  0  0  0  0  0  0  0
    1.3858   -1.3858    0.0000 C   0  0  0  0  0  0  0  0  0  0  0  0
   -0.0000   -1.9598    0.0000 C   0  0  0  0  0  0  0  0  0  0  0  0
   -1.3858   -1.3858    0.0000 C   0  0  0  0  0  0  0  0  0  0  0  0
   -1.9598    0.0000    0.0000 C   0  0  0  0  0  0  0  0  0  0  0  0
   -1.3858    1.3858    0.0000 C   0  0  0  0  0  0  0  0  0  0  0  0
   -2.4465    2.4465    0.0000 C   0  0  0  0  0  0  0  0  0  0  0  0
    0.0000    1.9598    0.0000 C   0  0  0  0  0  0  0  0  0  0  0  0
    0.0000    3.4598    0.0000 O   0  0  0  0  0  0  0  0  0  0  0  0
    1.3858    1.3858    0.0000 N   0  0  0  0  0  0  0  0  0  0  0  0
  1  2  1  0
  2  3  2  0
  3  4  1  0
  4  5  2  0
  5  6  1  0
  6  7  2  0
  7  8  1  0
  7  9  1  0
  9 10  2  0
  9 11  1  0
 11  2  1  0
M  END
>  <Title>  (979) 
idABLQgen8

$$$$

     RDKit          2D

 19 20  0  0  0  0  0  0  0  0999 V2000
    3.0000   -5.1962    0.0000 O   0  0  0  0  0  0  0  0  0  0  0  0
    1.5000   -5.1962    0.0000 C   0  0  0  0  0  0  0  0  0  0  0  0
    0.7500   -3.8971    0.0000 N   0  0  0  0  0  0  0  0  0  0  0  0
    1.5000   -2.5981    0.0000 C   0  0  0  0  0  0  0  0  0  0  0  0
    0.7500   -1.2990    0.0000 C   0  0  0  0  0  0  0  0  0  0  0  0
    1.5000    0.0000    0.0000 C   0  0  0  0  0  0  0  0  0  0  0  0
    0.7500    1.2990    0.0000 C   0  0  0  0  0  0  0  0  0  0  0  0
   -0.7500    1.2990    0.0000 C   0  0  0  0  0  0  0  0  0  0  0  0
   -1.5000    0.0000    0.0000 C   0  0  0  0  0  0  0  0  0  0  0  0
   -0.7500   -1.2990    0.0000 C   0  0  0  0  0  0  0  0  0  0  0  0
    0.7500   -6.4952    0.0000 C   0  0  0  0  0  0  0  0  0  0  0  0
   -0.7500   -6.4952    0.0000 O   0  0  0  0  0  0  0  0  0  0  0  0
    1.5000   -7.7942    0.0000 N   0  0  0  0  0  0  0  0  0  0  0  0
    0.7500   -9.0933    0.0000 C   0  0  0  0  0  0  0  0  0  0  0  0
   -0.7500   -9.0933    0.0000 C   0  0  0  0  0  0  0  0  0  0  0  0
   -1.5000  -10.3923    0.0000 C   0  0  0  0  0  0  0  0  0  0  0  0
   -0.7500  -11.6913    0.0000 C   0  0  0  0  0  0  0  0  0  0  0  0
    0.7500  -11.6913    0.0000 C   0  0  0  0  0  0  0  0  0  0  0  0
    1.5000  -10.3923    0.0000 C   0  0  0  0  0  0  0  0  0  0  0  0
  1  2  2  0
  2  3  1  0
  3  4  1  0
  4  5  1  0
  5  6  2  0
  6  7  1  0
  7  8  2  0
  8  9  1  0
  9 10  2  0
  2 11  1  0
 11 12  2  0
 11 13  1  0
 13 14  1  0
 14 15  2  0
 15 16  1  0
 16 17  2  0
 17 18  1  0
 18 19  2  0
 10  5  1  0
 19 14  1  0
M  END
>  <Title>  (980) 
idABLRgen8

$$$$

     RDKit          2D

 21 21  0  0  0  0  0  0  0  0999 V2000
    6.5691   -1.2990    0.0000 C   0  0  0  0  0  0  0  0  0  0  0  0
    5.8191    0.0000    0.0000 O   0  0  0  0  0  0  0  0  0  0  0  0
    4.3191    0.0000    0.0000 C   0  0  0  0  0  0  0  0  0  0  0  0
    4.0586   -1.4772    0.0000 C   0  0  0  0  0  0  0  0  0  0  0  0
    3.3086   -2.7762    0.0000 C   0  0  0  0  0  0  0  0  0  0  0  0
    2.1595   -3.7404    0.0000 N   0  0  0  0  0  0  0  0  0  0  0  0
    0.7500   -4.2535    0.0000 N   0  0  0  0  0  0  0  0  0  0  0  0
   -0.7500   -4.2535    0.0000 C   0  0  0  0  0  0  0  0  0  0  0  0
   -2.1595   -3.7404    0.0000 C   0  0  0  0  0  0  0  0  0  0  0  0
   -3.3086   -2.7762    0.0000 C   0  0  0  0  0  0  0  0  0  0  0  0
   -4.0586   -1.4772    0.0000 C   0  0  0  0  0  0  0  0  0  0  0  0
   -4.3191    0.0000    0.0000 C   0  0  0  0  0  0  0  0  0  0  0  0
   -4.0586    1.4772    0.0000 C   0  0  0  0  0  0  0  0  0  0  0  0
   -3.3086    2.7762    0.0000 C   0  0  0  0  0  0  0  0  0  0  0  0
   -2.1595    3.7404    0.0000 C   0  0  0  0  0  0  0  0  0  0  0  0
   -0.7500    4.2535    0.0000 C   0  0  0  0  0  0  0  0  0  0  0  0
    0.7500    4.2535    0.0000 C   0  0  0  0  0  0  0  0  0  0  0  0
    2.1595    3.7404    0.0000 C   0  0  0  0  0  0  0  0  0  0  0  0
    3.3086    2.7762    0.0000 C   0  0  0  0  0  0  0  0  0  0  0  0
    4.0586    1.4772    0.0000 C   0  0  0  0  0  0  0  0  0  0  0  0
    5.4681    1.9902    0.0000 O   0  0  0  0  0  0  0  0  0  0  0  0
  1  2  1  0
  2  3  1  0
  3  4  2  0
  4  5  1  0
  5  6  2  0
  6  7  1  0
  7  8  2  0
  8  9  1  0
  9 10  2  0
 10 11  1  0
 11 12  2  0
 12 13  1  0
 13 14  2  0
 14 15  1  0
 15 16  2  0
 16 17  1  0
 17 18  2  0
 18 19  1  0
 19 20  2  0
 20 21  1  0
 20  3  1  0
M  END
>  <Title>  (981) 
idABLSgen8

$$$$

     RDKit          2D

 25 27  0  0  0  0  0  0  0  0999 V2000
    3.0000    0.0000    0.0000 C   0  0  0  0  0  0  0  0  0  0  0  0
    1.5000    0.0000    0.0000 C   0  0  0  0  0  0  0  0  0  0  0  0
    0.7500   -1.2990    0.0000 C   0  0  0  0  0  0  0  0  0  0  0  0
   -0.7500   -1.2990    0.0000 C   0  0  0  0  0  0  0  0  0  0  0  0
   -1.5000    0.0000    0.0000 C   0  0  0  0  0  0  0  0  0  0  0  0
   -3.0000    0.0000    0.0000 N   0  0  0  0  0  0  0  0  0  0  0  0
   -3.7500    1.2990    0.0000 N   0  0  0  0  0  0  0  0  0  0  0  0
   -5.2500    1.2990    0.0000 N   0  0  0  0  0  0  0  0  0  0  0  0
   -6.0000    0.0000    0.0000 N   0  0  0  0  0  0  0  0  0  0  0  0
   -5.2500   -1.2990    0.0000 N   0  0  0  0  0  0  0  0  0  0  0  0
   -3.7500   -1.2990    0.0000 N   0  0  0  0  0  0  0  0  0  0  0  0
   -3.0000   -2.5981    0.0000 C   0  0  0  0  0  0  0  0  0  0  0  0
   -3.7500   -3.8971    0.0000 C   0  0  0  0  0  0  0  0  0  0  0  0
   -3.0000   -5.1962    0.0000 C   0  0  0  0  0  0  0  0  0  0  0  0
   -1.5000   -5.1962    0.0000 C   0  0  0  0  0  0  0  0  0  0  0  0
   -0.7500   -6.4952    0.0000 C   0  0  0  0  0  0  0  0  0  0  0  0
    0.7500   -6.4952    0.0000 O   0  0  0  0  0  0  0  0  0  0  0  0
   -1.5000   -7.7942    0.0000 N   0  0  0  0  0  0  0  0  0  0  0  0
   -0.7500   -9.0933    0.0000 O   0  0  0  0  0  0  0  0  0  0  0  0
   -0.7500   -3.8971    0.0000 C   0  0  0  0  0  0  0  0  0  0  0  0
    0.7500   -3.8971    0.0000 C   0  0  0  0  0  0  0  0  0  0  0  0
   -1.5000   -2.5981    0.0000 C   0  0  0  0  0  0  0  0  0  0  0  0
   -0.7500    1.2990    0.0000 C   0  0  0  0  0  0  0  0  0  0  0  0
   -1.5000    2.5981    0.0000 O   0  0  0  0  0  0  0  0  0  0  0  0
    0.7500    1.2990    0.0000 N   0  0  0  0  0  0  0  0  0  0  0  0
  1  2  1  0
  2  3  2  0
  3  4  1  0
  4  5  2  0
  5  6  1  0
  6  7  1  0
  7  8  2  0
  8  9  1  0
  9 10  2  0
 10 11  1  0
 11 12  1  0
 12 13  2  0
 13 14  1  0
 14 15  2  0
 15 16  1  0
 16 17  2  0
 16 18  1  0
 18 19  1  0
 15 20  1  0
 20 21  1  0
 20 22  2  0
  5 23  1  0
 23 24  2  0
 23 25  1  0
 25  2  1  0
 11  6  1  0
 22 12  1  0
M  END
>  <Title>  (982) 
idABLTgen8

$$$$

     RDKit          2D

 61 69  0  0  0  0  0  0  0  0999 V2000
    3.6381    6.6546    0.0000 C   0  0  0  0  0  0  0  0  0  0  0  0
    2.4541    8.5089    0.0000 C   0  0  0  0  0  0  0  0  0  0  0  0
    3.0064    9.2993    0.0000 C   0  0  0  0  0  0  0  0  0  0  0  0
    2.8380   10.2487    0.0000 C   0  0  0  0  0  0  0  0  0  0  0  0
    2.1983   11.4846    0.0000 C   0  0  0  0  0  0  0  0  0  0  0  0
    0.7214   11.2226    0.0000 N   0  0  0  0  0  0  0  0  0  0  0  0
   -0.1377    9.9930    0.0000 C   0  0  0  0  0  0  0  0  0  0  0  0
   -1.6025   10.3161    0.0000 O   0  0  0  0  0  0  0  0  0  0  0  0
    0.1243    8.5160    0.0000 C   0  0  0  0  0  0  0  0  0  0  0  0
   -1.3326    8.8729    0.0000 C   0  0  0  0  0  0  0  0  0  0  0  0
   -2.8201    8.6794    0.0000 C   0  0  0  0  0  0  0  0  0  0  0  0
   -4.1372    7.9616    0.0000 C   0  0  0  0  0  0  0  0  0  0  0  0
   -5.6134    8.2282    0.0000 C   0  0  0  0  0  0  0  0  0  0  0  0
   -6.7585    9.1971    0.0000 O   0  0  0  0  0  0  0  0  0  0  0  0
   -5.1061    6.8165    0.0000 C   0  0  0  0  0  0  0  0  0  0  0  0
   -5.5959    5.3988    0.0000 N   0  0  0  0  0  0  0  0  0  0  0  0
   -5.5405    3.8998    0.0000 N   0  0  0  0  0  0  0  0  0  0  0  0
   -4.9473    2.5221    0.0000 N   0  0  0  0  0  0  0  0  0  0  0  0
   -3.8965    1.4517    0.0000 N   0  0  0  0  0  0  0  0  0  0  0  0
   -4.7556    0.2220    0.0000 C   0  0  0  0  0  0  0  0  0  0  0  0
   -6.2500    0.3512    0.0000 C   0  0  0  0  0  0  0  0  0  0  0  0
   -7.1091   -0.8784    0.0000 C   0  0  0  0  0  0  0  0  0  0  0  0
   -6.4738   -2.2372    0.0000 C   0  0  0  0  0  0  0  0  0  0  0  0
   -7.3329   -3.4668    0.0000 C   0  0  0  0  0  0  0  0  0  0  0  0
   -6.6976   -4.8256    0.0000 O   0  0  0  0  0  0  0  0  0  0  0  0
   -8.8274   -3.3376    0.0000 N   0  0  0  0  0  0  0  0  0  0  0  0
   -9.6865   -4.5672    0.0000 O   0  0  0  0  0  0  0  0  0  0  0  0
   -4.9794   -2.3664    0.0000 N   0  0  0  0  0  0  0  0  0  0  0  0
   -4.1203   -1.1368    0.0000 C   0  0  0  0  0  0  0  0  0  0  0  0
   -2.6259   -1.2660    0.0000 O   0  0  0  0  0  0  0  0  0  0  0  0
   -2.5300    0.8331    0.0000 C   0  0  0  0  0  0  0  0  0  0  0  0
    1.8204    2.9878    0.0000 C   0  0  0  0  0  0  0  0  0  0  0  0
    3.3169    3.0908    0.0000 C   0  0  0  0  0  0  0  0  0  0  0  0
    4.6204    3.8330    0.0000 C   0  0  0  0  0  0  0  0  0  0  0  0
    5.6340    2.7273    0.0000 C   0  0  0  0  0  0  0  0  0  0  0  0
    5.1832    1.2966    0.0000 C   0  0  0  0  0  0  0  0  0  0  0  0
    6.1968    0.1909    0.0000 C   0  0  0  0  0  0  0  0  0  0  0  0
    7.6612    0.5158    0.0000 C   0  0  0  0  0  0  0  0  0  0  0  0
    8.1120    1.9465    0.0000 C   0  0  0  0  0  0  0  0  0  0  0  0
    7.0984    3.0522    0.0000 C   0  0  0  0  0  0  0  0  0  0  0  0
    5.4728    5.0672    0.0000 C   0  0  0  0  0  0  0  0  0  0  0  0
    5.7053    6.5491    0.0000 C   0  0  0  0  0  0  0  0  0  0  0  0
    5.2719    7.9851    0.0000 C   0  0  0  0  0  0  0  0  0  0  0  0
    4.9553    6.5189    0.0000 C   0  0  0  0  0  0  0  0  0  0  0  0
    3.9481    5.4073    0.0000 C   0  0  0  0  0  0  0  0  0  0  0  0
    2.5200    4.9484    0.0000 C   0  0  0  0  0  0  0  0  0  0  0  0
    2.1901    6.4116    0.0000 C   0  0  0  0  0  0  0  0  0  0  0  0
    1.3539    7.6569    0.0000 C   0  0  0  0  0  0  0  0  0  0  0  0
    1.6375    3.6933    0.0000 C   0  0  0  0  0  0  0  0  0  0  0  0
    2.5655    3.5380    0.0000 O   0  0  0  0  0  0  0  0  0  0  0  0
    1.0227    2.6132    0.0000 N   0  0  0  0  0  0  0  0  0  0  0  0
    0.3943    1.2135    0.0000 C   0  0  0  0  0  0  0  0  0  0  0  0
    1.2760    0.0000    0.0000 N   0  0  0  0  0  0  0  0  0  0  0  0
    0.3943   -1.2135    0.0000 N   0  0  0  0  0  0  0  0  0  0  0  0
   -1.0323   -0.7500    0.0000 N   0  0  0  0  0  0  0  0  0  0  0  0
   -1.0323    0.7500    0.0000 N   0  0  0  0  0  0  0  0  0  0  0  0
    4.8129    9.4131    0.0000 N   0  0  0  0  0  0  0  0  0  0  0  0
    6.1143   10.1590    0.0000 N   0  0  0  0  0  0  0  0  0  0  0  0
    5.8071   11.6272    0.0000 N   0  0  0  0  0  0  0  0  0  0  0  0
    4.3158   11.7887    0.0000 N   0  0  0  0  0  0  0  0  0  0  0  0
    3.7014   10.4204    0.0000 C   0  0  0  0  0  0  0  0  0  0  0  0
  1  2  1  0
  2  3  2  0
  3  4  1  0
  4  5  2  0
  5  6  1  0
  6  7  1  0
  7  8  2  0
  7  9  1  0
  9 10  2  0
 10 11  1  0
 11 12  2  0
 12 13  1  0
 13 14  2  0
 13 15  1  0
 15 16  2  0
 16 17  1  0
 17 18  2  0
 18 19  1  0
 19 20  1  0
 20 21  2  0
 21 22  1  0
 22 23  2  0
 23 24  1  0
 24 25  2  0
 24 26  1  0
 26 27  1  0
 23 28  1  0
 28 29  1  0
 29 30  2  0
 19 31  1  0
 31 32  2  0
 32 33  1  0
 33 34  2  0
 34 35  1  0
 35 36  2  0
 36 37  1  0
 37 38  2  0
 38 39  1  0
 39 40  2  0
 34 41  1  0
 41 42  2  0
 42 43  1  0
 43 44  2  0
 44 45  1  0
 45 46  2  0
 46 47  1  0
 47 48  2  0
 46 49  1  0
 49 50  2  0
 49 51  1  0
 51 52  1  0
 52 53  2  0
 53 54  1  0
 54 55  2  0
 55 56  1  0
 43 57  1  0
 57 58  1  0
 58 59  2  0
 59 60  1  0
 60 61  2  0
 48  2  1  0
 56 52  1  0
 61 57  1  0
 61  5  1  0
 48  9  1  0
 15 12  1  0
 29 20  1  0
 56 31  1  0
 40 35  1  0
M  END
>  <Title>  (983) 
idABLUgen8

$$$$

     RDKit          2D

  8  8  0  0  0  0  0  0  0  0999 V2000
    3.7500   -1.2990    0.0000 O   0  0  0  0  0  0  0  0  0  0  0  0
    3.0000    0.0000    0.0000 C   0  0  0  0  0  0  0  0  0  0  0  0
    1.5000    0.0000    0.0000 C   0  0  0  0  0  0  0  0  0  0  0  0
    0.7500   -1.2990    0.0000 C   0  0  0  0  0  0  0  0  0  0  0  0
   -0.7500   -1.2990    0.0000 C   0  0  0  0  0  0  0  0  0  0  0  0
   -1.5000    0.0000    0.0000 C   0  0  0  0  0  0  0  0  0  0  0  0
   -0.7500    1.2990    0.0000 C   0  0  0  0  0  0  0  0  0  0  0  0
    0.7500    1.2990    0.0000 C   0  0  0  0  0  0  0  0  0  0  0  0
  1  2  2  0
  2  3  1  0
  3  4  2  0
  4  5  1  0
  5  6  2  0
  6  7  1  0
  7  8  2  0
  8  3  1  0
M  END
>  <Title>  (984) 
idABLVgen8

$$$$

     RDKit          2D

 48 54  0  0  0  0  0  0  0  0999 V2000
    0.8311   10.2038    0.0000 C   0  0  0  0  0  0  0  0  0  0  0  0
   -0.5392    9.5937    0.0000 C   0  0  0  0  0  0  0  0  0  0  0  0
   -1.7527   10.4753    0.0000 C   0  0  0  0  0  0  0  0  0  0  0  0
   -3.1230    9.8652    0.0000 C   0  0  0  0  0  0  0  0  0  0  0  0
   -3.2798    8.3735    0.0000 C   0  0  0  0  0  0  0  0  0  0  0  0
   -4.6502    7.7634    0.0000 C   0  0  0  0  0  0  0  0  0  0  0  0
   -5.9492    8.5134    0.0000 N   0  0  0  0  0  0  0  0  0  0  0  0
   -7.0639    7.5097    0.0000 N   0  0  0  0  0  0  0  0  0  0  0  0
   -6.4538    6.1393    0.0000 N   0  0  0  0  0  0  0  0  0  0  0  0
   -4.9620    6.2961    0.0000 N   0  0  0  0  0  0  0  0  0  0  0  0
   -3.9583    5.1814    0.0000 C   0  0  0  0  0  0  0  0  0  0  0  0
   -2.4911    5.4933    0.0000 C   0  0  0  0  0  0  0  0  0  0  0  0
   -1.4874    4.3786    0.0000 C   0  0  0  0  0  0  0  0  0  0  0  0
   -1.9509    2.9520    0.0000 C   0  0  0  0  0  0  0  0  0  0  0  0
   -3.4182    2.6401    0.0000 C   0  0  0  0  0  0  0  0  0  0  0  0
   -4.4218    3.7548    0.0000 C   0  0  0  0  0  0  0  0  0  0  0  0
   -5.8891    3.4430    0.0000 C   0  0  0  0  0  0  0  0  0  0  0  0
   -6.8928    4.5577    0.0000 C   0  0  0  0  0  0  0  0  0  0  0  0
   -8.3600    4.2458    0.0000 C   0  0  0  0  0  0  0  0  0  0  0  0
   -8.8235    2.8192    0.0000 C   0  0  0  0  0  0  0  0  0  0  0  0
  -10.2907    2.5074    0.0000 C   0  0  0  0  0  0  0  0  0  0  0  0
  -10.7543    1.0808    0.0000 O   0  0  0  0  0  0  0  0  0  0  0  0
  -11.2944    3.6221    0.0000 N   0  0  0  0  0  0  0  0  0  0  0  0
  -12.7617    3.3102    0.0000 C   0  0  0  0  0  0  0  0  0  0  0  0
  -13.3718    1.9399    0.0000 N   0  0  0  0  0  0  0  0  0  0  0  0
  -14.8635    2.0967    0.0000 N   0  0  0  0  0  0  0  0  0  0  0  0
  -15.1754    3.5639    0.0000 N   0  0  0  0  0  0  0  0  0  0  0  0
  -13.8764    4.3139    0.0000 N   0  0  0  0  0  0  0  0  0  0  0  0
  -13.7196    5.8057    0.0000 C   0  0  0  0  0  0  0  0  0  0  0  0
  -12.3493    6.4158    0.0000 C   0  0  0  0  0  0  0  0  0  0  0  0
  -12.1925    7.9076    0.0000 C   0  0  0  0  0  0  0  0  0  0  0  0
  -13.4060    8.7893    0.0000 C   0  0  0  0  0  0  0  0  0  0  0  0
  -14.7763    8.1791    0.0000 N   0  0  0  0  0  0  0  0  0  0  0  0
  -14.9331    6.6874    0.0000 C   0  0  0  0  0  0  0  0  0  0  0  0
   -7.8198    1.7045    0.0000 C   0  0  0  0  0  0  0  0  0  0  0  0
   -6.3526    2.0164    0.0000 C   0  0  0  0  0  0  0  0  0  0  0  0
   -5.3489    0.9017    0.0000 C   0  0  0  0  0  0  0  0  0  0  0  0
   -5.8124   -0.5249    0.0000 C   0  0  0  0  0  0  0  0  0  0  0  0
   -4.8087   -1.6396    0.0000 C   0  0  0  0  0  0  0  0  0  0  0  0
   -3.3415   -1.3278    0.0000 C   0  0  0  0  0  0  0  0  0  0  0  0
   -2.3378   -2.4425    0.0000 C   0  0  0  0  0  0  0  0  0  0  0  0
   -0.8706   -2.1306    0.0000 O   0  0  0  0  0  0  0  0  0  0  0  0
   -2.8013   -3.8691    0.0000 N   0  0  0  0  0  0  0  0  0  0  0  0
   -1.7976   -4.9838    0.0000 O   0  0  0  0  0  0  0  0  0  0  0  0
   -2.8780    0.0988    0.0000 C   0  0  0  0  0  0  0  0  0  0  0  0
   -3.8817    1.2135    0.0000 C   0  0  0  0  0  0  0  0  0  0  0  0
   -2.0663    7.4918    0.0000 C   0  0  0  0  0  0  0  0  0  0  0  0
   -0.6960    8.1019    0.0000 C   0  0  0  0  0  0  0  0  0  0  0  0
  1  2  1  0
  2  3  2  0
  3  4  1  0
  4  5  2  0
  5  6  1  0
  6  7  2  0
  7  8  1  0
  8  9  2  0
  9 10  1  0
 10 11  1  0
 11 12  1  0
 12 13  1  0
 13 14  1  0
 14 15  1  0
 15 16  1  0
 16 17  1  0
 17 18  2  0
 18 19  1  0
 19 20  2  0
 20 21  1  0
 21 22  2  0
 21 23  1  0
 23 24  1  0
 24 25  2  0
 25 26  1  0
 26 27  2  0
 27 28  1  0
 28 29  1  0
 29 30  2  0
 30 31  1  0
 31 32  2  0
 32 33  1  0
 33 34  2  0
 20 35  1  0
 35 36  2  0
 36 37  1  0
 37 38  2  0
 38 39  1  0
 39 40  2  0
 40 41  1  0
 41 42  2  0
 41 43  1  0
 43 44  1  0
 40 45  1  0
 45 46  1  0
  5 47  1  0
 47 48  2  0
 48  2  1  0
 10  6  1  0
 16 11  1  0
 36 17  1  0
 46 37  1  0
 28 24  1  0
 34 29  1  0
M  END
>  <Title>  (985) 
idABLWgen8

$$$$

     RDKit          2D

 39 41  0  0  0  0  0  0  0  0999 V2000
    6.0944   -1.2990    0.0000 C   0  0  0  0  0  0  0  0  0  0  0  0
    5.3444    0.0000    0.0000 N   0  0  0  0  0  0  0  0  0  0  0  0
    3.8444    0.0000    0.0000 C   0  0  0  0  0  0  0  0  0  0  0  0
    3.5517   -1.4712    0.0000 C   0  0  0  0  0  0  0  0  0  0  0  0
    2.7184   -2.7184    0.0000 C   0  0  0  0  0  0  0  0  0  0  0  0
    1.4712   -3.5517    0.0000 C   0  0  0  0  0  0  0  0  0  0  0  0
   -0.0000   -3.8444    0.0000 C   0  0  0  0  0  0  0  0  0  0  0  0
   -1.4712   -3.5517    0.0000 C   0  0  0  0  0  0  0  0  0  0  0  0
   -2.7184   -2.7184    0.0000 C   0  0  0  0  0  0  0  0  0  0  0  0
   -3.5517   -1.4712    0.0000 C   0  0  0  0  0  0  0  0  0  0  0  0
   -3.8444    0.0000    0.0000 C   0  0  0  0  0  0  0  0  0  0  0  0
   -3.5517    1.4712    0.0000 C   0  0  0  0  0  0  0  0  0  0  0  0
   -2.7184    2.7184    0.0000 C   0  0  0  0  0  0  0  0  0  0  0  0
   -1.4712    3.5517    0.0000 C   0  0  0  0  0  0  0  0  0  0  0  0
    0.0000    3.8444    0.0000 C   0  0  0  0  0  0  0  0  0  0  0  0
    1.4712    3.5517    0.0000 C   0  0  0  0  0  0  0  0  0  0  0  0
    2.0452    4.9376    0.0000 C   0  0  0  0  0  0  0  0  0  0  0  0
    1.1321    6.1276    0.0000 O   0  0  0  0  0  0  0  0  0  0  0  0
    3.5324    5.1333    0.0000 N   0  0  0  0  0  0  0  0  0  0  0  0
    4.1064    6.5192    0.0000 C   0  0  0  0  0  0  0  0  0  0  0  0
    3.3226    7.7981    0.0000 N   0  0  0  0  0  0  0  0  0  0  0  0
    4.2968    8.9387    0.0000 N   0  0  0  0  0  0  0  0  0  0  0  0
    5.6826    8.3647    0.0000 N   0  0  0  0  0  0  0  0  0  0  0  0
    5.5650    6.8693    0.0000 N   0  0  0  0  0  0  0  0  0  0  0  0
    6.7056    5.8952    0.0000 C   0  0  0  0  0  0  0  0  0  0  0  0
    6.2420    4.4686    0.0000 C   0  0  0  0  0  0  0  0  0  0  0  0
    6.9230    3.1321    0.0000 C   0  0  0  0  0  0  0  0  0  0  0  0
    8.3496    2.6685    0.0000 C   0  0  0  0  0  0  0  0  0  0  0  0
    8.4673    1.1732    0.0000 C   0  0  0  0  0  0  0  0  0  0  0  0
    7.2311    0.3236    0.0000 O   0  0  0  0  0  0  0  0  0  0  0  0
    9.8212    0.5274    0.0000 N   0  0  0  0  0  0  0  0  0  0  0  0
    9.9389   -0.9680    0.0000 O   0  0  0  0  0  0  0  0  0  0  0  0
    9.6861    3.3495    0.0000 C   0  0  0  0  0  0  0  0  0  0  0  0
   10.8267    2.3754    0.0000 C   0  0  0  0  0  0  0  0  0  0  0  0
   10.1496    4.7761    0.0000 C   0  0  0  0  0  0  0  0  0  0  0  0
    9.4687    6.1126    0.0000 C   0  0  0  0  0  0  0  0  0  0  0  0
    8.0421    6.5761    0.0000 C   0  0  0  0  0  0  0  0  0  0  0  0
    2.7184    2.7184    0.0000 C   0  0  0  0  0  0  0  0  0  0  0  0
    3.5517    1.4712    0.0000 C   0  0  0  0  0  0  0  0  0  0  0  0
  1  2  1  0
  2  3  1  0
  3  4  2  0
  4  5  1  0
  5  6  2  0
  6  7  1  0
  7  8  2  0
  8  9  1  0
  9 10  2  0
 10 11  1  0
 11 12  2  0
 12 13  1  0
 13 14  2  0
 14 15  1  0
 15 16  2  0
 16 17  1  0
 17 18  2  0
 17 19  1  0
 19 20  1  0
 20 21  2  0
 21 22  1  0
 22 23  2  0
 23 24  1  0
 24 25  1  0
 25 26  2  0
 26 27  1  0
 27 28  2  0
 28 29  1  0
 29 30  2  0
 29 31  1  0
 31 32  1  0
 28 33  1  0
 33 34  1  0
 33 35  2  0
 35 36  1  0
 36 37  2  0
 16 38  1  0
 38 39  2  0
 39  3  1  0
 24 20  1  0
 37 25  1  0
M  END
>  <Title>  (986) 
idABLXgen8

$$$$

     RDKit          2D

 37 42  0  0  0  0  0  0  0  0999 V2000
  -11.9287    2.4008    0.0000 C   0  0  0  0  0  0  0  0  0  0  0  0
  -10.7844    3.3707    0.0000 C   0  0  0  0  0  0  0  0  0  0  0  0
  -11.0523    4.8466    0.0000 C   0  0  0  0  0  0  0  0  0  0  0  0
   -9.9080    5.8165    0.0000 C   0  0  0  0  0  0  0  0  0  0  0  0
   -8.4959    5.3105    0.0000 C   0  0  0  0  0  0  0  0  0  0  0  0
   -7.3517    6.2804    0.0000 C   0  0  0  0  0  0  0  0  0  0  0  0
   -7.6195    7.7563    0.0000 O   0  0  0  0  0  0  0  0  0  0  0  0
   -5.9396    5.7744    0.0000 N   0  0  0  0  0  0  0  0  0  0  0  0
   -4.7954    6.7443    0.0000 C   0  0  0  0  0  0  0  0  0  0  0  0
   -4.9075    8.2401    0.0000 N   0  0  0  0  0  0  0  0  0  0  0  0
   -3.5195    8.8089    0.0000 N   0  0  0  0  0  0  0  0  0  0  0  0
   -2.5496    7.6647    0.0000 N   0  0  0  0  0  0  0  0  0  0  0  0
   -3.3381    6.3887    0.0000 N   0  0  0  0  0  0  0  0  0  0  0  0
   -2.7693    5.0007    0.0000 C   0  0  0  0  0  0  0  0  0  0  0  0
   -3.7730    3.8860    0.0000 C   0  0  0  0  0  0  0  0  0  0  0  0
   -3.5273    2.4063    0.0000 C   0  0  0  0  0  0  0  0  0  0  0  0
   -2.1470    1.7537    0.0000 C   0  0  0  0  0  0  0  0  0  0  0  0
   -1.8351    3.2209    0.0000 C   0  0  0  0  0  0  0  0  0  0  0  0
   -0.4086    3.6844    0.0000 C   0  0  0  0  0  0  0  0  0  0  0  0
   -1.2720    4.9110    0.0000 C   0  0  0  0  0  0  0  0  0  0  0  0
   -0.5415    6.2211    0.0000 O   0  0  0  0  0  0  0  0  0  0  0  0
    0.7062    2.6807    0.0000 C   0  0  0  0  0  0  0  0  0  0  0  0
    2.1328    3.1443    0.0000 C   0  0  0  0  0  0  0  0  0  0  0  0
    2.4446    4.6115    0.0000 C   0  0  0  0  0  0  0  0  0  0  0  0
    3.8712    5.0750    0.0000 C   0  0  0  0  0  0  0  0  0  0  0  0
    4.3347    6.5016    0.0000 C   0  0  0  0  0  0  0  0  0  0  0  0
    5.8347    6.5016    0.0000 C   0  0  0  0  0  0  0  0  0  0  0  0
    6.2983    5.0750    0.0000 C   0  0  0  0  0  0  0  0  0  0  0  0
    5.0847    4.1933    0.0000 C   0  0  0  0  0  0  0  0  0  0  0  0
    0.3943    1.2135    0.0000 N   0  0  0  0  0  0  0  0  0  0  0  0
    1.2760    0.0000    0.0000 N   0  0  0  0  0  0  0  0  0  0  0  0
    0.3943   -1.2135    0.0000 N   0  0  0  0  0  0  0  0  0  0  0  0
   -1.0323   -0.7500    0.0000 C   0  0  0  0  0  0  0  0  0  0  0  0
   -1.0323    0.7500    0.0000 C   0  0  0  0  0  0  0  0  0  0  0  0
   -8.2281    3.8346    0.0000 N   0  0  0  0  0  0  0  0  0  0  0  0
   -9.3723    2.8647    0.0000 C   0  0  0  0  0  0  0  0  0  0  0  0
   -9.1045    1.3888    0.0000 O   0  0  0  0  0  0  0  0  0  0  0  0
  1  2  1  0
  2  3  2  0
  3  4  1  0
  4  5  2  0
  5  6  1  0
  6  7  2  0
  6  8  1  0
  8  9  1  0
  9 10  2  0
 10 11  1  0
 11 12  2  0
 12 13  1  0
 13 14  1  0
 14 15  2  0
 15 16  1  0
 16 17  2  0
 17 18  1  0
 18 19  2  0
 19 20  1  0
 20 21  2  0
 19 22  1  0
 22 23  2  3
 23 24  1  0
 24 25  2  3
 25 26  1  0
 26 27  2  0
 27 28  1  0
 28 29  2  0
 22 30  1  0
 30 31  1  0
 31 32  2  0
 32 33  1  0
 33 34  2  0
  5 35  1  0
 35 36  1  0
 36 37  2  0
 36  2  1  0
 13  9  1  0
 20 14  1  0
 29 25  1  0
 34 30  1  0
 34 17  1  0
M  END
>  <Title>  (987) 
idABLYgen8

$$$$

     RDKit          2D

 11 12  0  0  0  0  0  0  0  0999 V2000
   -1.7979    5.5335    0.0000 C   0  0  0  0  0  0  0  0  0  0  0  0
   -1.3344    4.1069    0.0000 C   0  0  0  0  0  0  0  0  0  0  0  0
    0.1520    3.9056    0.0000 C   0  0  0  0  0  0  0  0  0  0  0  0
    0.9214    2.6179    0.0000 C   0  0  0  0  0  0  0  0  0  0  0  0
    0.3943    1.2135    0.0000 C   0  0  0  0  0  0  0  0  0  0  0  0
    1.2760    0.0000    0.0000 C   0  0  0  0  0  0  0  0  0  0  0  0
    0.3943   -1.2135    0.0000 C   0  0  0  0  0  0  0  0  0  0  0  0
   -1.0323   -0.7500    0.0000 C   0  0  0  0  0  0  0  0  0  0  0  0
   -1.0323    0.7500    0.0000 C   0  0  0  0  0  0  0  0  0  0  0  0
   -2.2841    1.5763    0.0000 C   0  0  0  0  0  0  0  0  0  0  0  0
   -2.4186    3.0703    0.0000 N   0  0  0  0  0  0  0  0  0  0  0  0
  1  2  1  0
  2  3  2  0
  3  4  1  0
  4  5  2  0
  5  6  1  0
  6  7  2  0
  7  8  1  0
  8  9  2  0
  9 10  1  0
 10 11  1  0
 11  2  1  0
  9  5  1  0
M  END
>  <Title>  (988) 
idABLZgen8

$$$$

     RDKit          2D

 17 17  0  0  0  0  0  0  0  0999 V2000
    5.6205   -1.2990    0.0000 C   0  0  0  0  0  0  0  0  0  0  0  0
    4.8705    0.0000    0.0000 O   0  0  0  0  0  0  0  0  0  0  0  0
    3.3705    0.0000    0.0000 C   0  0  0  0  0  0  0  0  0  0  0  0
    3.0367   -1.4624    0.0000 C   0  0  0  0  0  0  0  0  0  0  0  0
    2.1015   -2.6351    0.0000 C   0  0  0  0  0  0  0  0  0  0  0  0
    0.7500   -3.2860    0.0000 C   0  0  0  0  0  0  0  0  0  0  0  0
   -0.7500   -3.2860    0.0000 C   0  0  0  0  0  0  0  0  0  0  0  0
   -2.1015   -2.6351    0.0000 C   0  0  0  0  0  0  0  0  0  0  0  0
   -3.0367   -1.4624    0.0000 C   0  0  0  0  0  0  0  0  0  0  0  0
   -3.3705    0.0000    0.0000 C   0  0  0  0  0  0  0  0  0  0  0  0
   -3.0367    1.4624    0.0000 C   0  0  0  0  0  0  0  0  0  0  0  0
   -2.1015    2.6351    0.0000 C   0  0  0  0  0  0  0  0  0  0  0  0
   -0.7500    3.2860    0.0000 C   0  0  0  0  0  0  0  0  0  0  0  0
    0.7500    3.2860    0.0000 C   0  0  0  0  0  0  0  0  0  0  0  0
    2.1015    2.6351    0.0000 C   0  0  0  0  0  0  0  0  0  0  0  0
    3.0367    1.4624    0.0000 C   0  0  0  0  0  0  0  0  0  0  0  0
    4.3881    2.1132    0.0000 N   0  0  0  0  0  0  0  0  0  0  0  0
  1  2  1  0
  2  3  1  0
  3  4  2  0
  4  5  1  0
  5  6  2  0
  6  7  1  0
  7  8  2  0
  8  9  1  0
  9 10  2  0
 10 11  1  0
 11 12  2  0
 12 13  1  0
 13 14  2  0
 14 15  1  0
 15 16  2  0
 16 17  1  0
 16  3  1  0
M  END
>  <Title>  (989) 
idABMAgen8

$$$$

     RDKit          2D

 12 12  0  0  0  0  0  0  0  0999 V2000
    3.6929    0.0000    0.0000 C   0  0  0  0  0  0  0  0  0  0  0  0
    2.1929    0.0000    0.0000 C   0  0  0  0  0  0  0  0  0  0  0  0
    1.6798    1.4095    0.0000 C   0  0  0  0  0  0  0  0  0  0  0  0
    0.3808    2.1595    0.0000 C   0  0  0  0  0  0  0  0  0  0  0  0
   -1.0964    1.8991    0.0000 C   0  0  0  0  0  0  0  0  0  0  0  0
   -2.0606    0.7500    0.0000 C   0  0  0  0  0  0  0  0  0  0  0  0
   -3.4701    1.2630    0.0000 F   0  0  0  0  0  0  0  0  0  0  0  0
   -2.0606   -0.7500    0.0000 C   0  0  0  0  0  0  0  0  0  0  0  0
   -3.4701   -1.2630    0.0000 C   0  0  0  0  0  0  0  0  0  0  0  0
   -1.0964   -1.8991    0.0000 C   0  0  0  0  0  0  0  0  0  0  0  0
    0.3808   -2.1595    0.0000 C   0  0  0  0  0  0  0  0  0  0  0  0
    1.6798   -1.4095    0.0000 C   0  0  0  0  0  0  0  0  0  0  0  0
  1  2  1  0
  2  3  2  0
  3  4  1  0
  4  5  2  0
  5  6  2  0
  6  7  1  0
  6  8  1  0
  8  9  1  0
  8 10  2  0
 10 11  1  0
 11 12  2  0
 12  2  1  0
M  END
>  <Title>  (990) 
idABMBgen8

$$$$

     RDKit          2D

 38 42  0  0  0  0  0  0  0  0999 V2000
    4.8705    0.0000    0.0000 C   0  0  0  0  0  0  0  0  0  0  0  0
    3.3705    0.0000    0.0000 C   0  0  0  0  0  0  0  0  0  0  0  0
    3.0367   -1.4624    0.0000 C   0  0  0  0  0  0  0  0  0  0  0  0
    2.1015   -2.6351    0.0000 C   0  0  0  0  0  0  0  0  0  0  0  0
    0.7500   -3.2860    0.0000 C   0  0  0  0  0  0  0  0  0  0  0  0
   -0.7500   -3.2860    0.0000 C   0  0  0  0  0  0  0  0  0  0  0  0
   -2.1015   -2.6351    0.0000 C   0  0  0  0  0  0  0  0  0  0  0  0
   -3.0367   -1.4624    0.0000 C   0  0  0  0  0  0  0  0  0  0  0  0
   -3.3705    0.0000    0.0000 C   0  0  0  0  0  0  0  0  0  0  0  0
   -3.0367    1.4624    0.0000 C   0  0  0  0  0  0  0  0  0  0  0  0
   -2.1015    2.6351    0.0000 C   0  0  0  0  0  0  0  0  0  0  0  0
   -0.7500    3.2860    0.0000 C   0  0  0  0  0  0  0  0  0  0  0  0
    0.7500    3.2860    0.0000 C   0  0  0  0  0  0  0  0  0  0  0  0
    1.0838    4.7484    0.0000 N   0  0  0  0  0  0  0  0  0  0  0  0
    2.5171    5.1905    0.0000 N   0  0  0  0  0  0  0  0  0  0  0  0
    2.8509    6.6529    0.0000 N   0  0  0  0  0  0  0  0  0  0  0  0
    1.7513    7.6731    0.0000 N   0  0  0  0  0  0  0  0  0  0  0  0
    0.3180    7.2310    0.0000 N   0  0  0  0  0  0  0  0  0  0  0  0
   -0.0158    5.7686    0.0000 N   0  0  0  0  0  0  0  0  0  0  0  0
   -1.4492    5.3265    0.0000 C   0  0  0  0  0  0  0  0  0  0  0  0
   -1.9340    3.9070    0.0000 C   0  0  0  0  0  0  0  0  0  0  0  0
   -3.4338    3.9294    0.0000 C   0  0  0  0  0  0  0  0  0  0  0  0
   -3.8759    5.3628    0.0000 C   0  0  0  0  0  0  0  0  0  0  0  0
   -5.2954    5.8476    0.0000 C   0  0  0  0  0  0  0  0  0  0  0  0
   -6.5220    4.9842    0.0000 N   0  0  0  0  0  0  0  0  0  0  0  0
   -7.7222    5.8839    0.0000 N   0  0  0  0  0  0  0  0  0  0  0  0
   -7.2374    7.3034    0.0000 N   0  0  0  0  0  0  0  0  0  0  0  0
   -5.7376    7.2810    0.0000 N   0  0  0  0  0  0  0  0  0  0  0  0
   -4.8378    8.4812    0.0000 C   0  0  0  0  0  0  0  0  0  0  0  0
   -3.3486    8.3021    0.0000 C   0  0  0  0  0  0  0  0  0  0  0  0
   -2.4488    9.5023    0.0000 C   0  0  0  0  0  0  0  0  0  0  0  0
   -3.0384   10.8816    0.0000 C   0  0  0  0  0  0  0  0  0  0  0  0
   -4.5276   11.0607    0.0000 C   0  0  0  0  0  0  0  0  0  0  0  0
   -5.4274    9.8605    0.0000 C   0  0  0  0  0  0  0  0  0  0  0  0
   -2.6494    6.2262    0.0000 C   0  0  0  0  0  0  0  0  0  0  0  0
   -2.6269    7.7260    0.0000 O   0  0  0  0  0  0  0  0  0  0  0  0
    2.1015    2.6351    0.0000 C   0  0  0  0  0  0  0  0  0  0  0  0
    3.0367    1.4624    0.0000 C   0  0  0  0  0  0  0  0  0  0  0  0
  1  2  1  0
  2  3  2  0
  3  4  1  0
  4  5  2  0
  5  6  1  0
  6  7  2  0
  7  8  1  0
  8  9  2  0
  9 10  1  0
 10 11  2  0
 11 12  1  0
 12 13  2  0
 13 14  1  0
 14 15  1  0
 15 16  2  0
 16 17  1  0
 17 18  2  0
 18 19  1  0
 19 20  1  0
 20 21  2  0
 21 22  1  0
 22 23  2  0
 23 24  1  0
 24 25  2  0
 25 26  1  0
 26 27  2  0
 27 28  1  0
 28 29  1  0
 29 30  2  0
 30 31  1  0
 31 32  2  0
 32 33  1  0
 33 34  2  0
 23 35  1  0
 35 36  2  0
 13 37  1  0
 37 38  1  0
 38  2  1  0
 19 14  1  0
 35 20  1  0
 28 24  1  0
 34 29  1  0
M  END
>  <Title>  (991) 
idABMCgen8

$$$$

     RDKit          2D

 51 58  0  0  0  0  0  0  0  0999 V2000
  -10.1624    4.2767    0.0000 C   0  0  0  0  0  0  0  0  0  0  0  0
   -8.9488    3.3950    0.0000 C   0  0  0  0  0  0  0  0  0  0  0  0
   -9.1056    1.9033    0.0000 C   0  0  0  0  0  0  0  0  0  0  0  0
   -7.8921    1.0216    0.0000 C   0  0  0  0  0  0  0  0  0  0  0  0
   -6.5218    1.6317    0.0000 C   0  0  0  0  0  0  0  0  0  0  0  0
   -5.3083    0.7500    0.0000 C   0  0  0  0  0  0  0  0  0  0  0  0
   -5.3083   -0.7500    0.0000 N   0  0  0  0  0  0  0  0  0  0  0  0
   -3.8817   -1.2135    0.0000 N   0  0  0  0  0  0  0  0  0  0  0  0
   -3.0000    0.0000    0.0000 N   0  0  0  0  0  0  0  0  0  0  0  0
   -3.8817    1.2135    0.0000 N   0  0  0  0  0  0  0  0  0  0  0  0
   -3.4182    2.6401    0.0000 C   0  0  0  0  0  0  0  0  0  0  0  0
   -4.2998    3.8536    0.0000 N   0  0  0  0  0  0  0  0  0  0  0  0
   -3.4182    5.0672    0.0000 N   0  0  0  0  0  0  0  0  0  0  0  0
   -1.9916    4.6036    0.0000 N   0  0  0  0  0  0  0  0  0  0  0  0
   -1.9916    3.1036    0.0000 N   0  0  0  0  0  0  0  0  0  0  0  0
   -0.7780    2.2220    0.0000 C   0  0  0  0  0  0  0  0  0  0  0  0
   -0.9348    0.7302    0.0000 C   0  0  0  0  0  0  0  0  0  0  0  0
    0.2787   -0.1515    0.0000 C   0  0  0  0  0  0  0  0  0  0  0  0
    1.6490    0.4586    0.0000 C   0  0  0  0  0  0  0  0  0  0  0  0
    2.8625   -0.4231    0.0000 C   0  0  0  0  0  0  0  0  0  0  0  0
    4.2891    0.0404    0.0000 C   0  0  0  0  0  0  0  0  0  0  0  0
    5.1708   -1.1731    0.0000 N   0  0  0  0  0  0  0  0  0  0  0  0
    4.2891   -2.3866    0.0000 N   0  0  0  0  0  0  0  0  0  0  0  0
    2.8625   -1.9231    0.0000 N   0  0  0  0  0  0  0  0  0  0  0  0
    1.6490   -2.8048    0.0000 C   0  0  0  0  0  0  0  0  0  0  0  0
    0.2787   -2.1946    0.0000 C   0  0  0  0  0  0  0  0  0  0  0  0
   -0.9348   -3.0763    0.0000 C   0  0  0  0  0  0  0  0  0  0  0  0
   -0.7780   -4.5681    0.0000 C   0  0  0  0  0  0  0  0  0  0  0  0
    0.5923   -5.1782    0.0000 C   0  0  0  0  0  0  0  0  0  0  0  0
    1.8058   -4.2965    0.0000 C   0  0  0  0  0  0  0  0  0  0  0  0
    1.8058    1.9504    0.0000 C   0  0  0  0  0  0  0  0  0  0  0  0
    0.5923    2.8321    0.0000 C   0  0  0  0  0  0  0  0  0  0  0  0
    0.7491    4.3238    0.0000 C   0  0  0  0  0  0  0  0  0  0  0  0
   -0.3656    5.3275    0.0000 C   0  0  0  0  0  0  0  0  0  0  0  0
    0.2445    6.6979    0.0000 C   0  0  0  0  0  0  0  0  0  0  0  0
    1.7362    6.5411    0.0000 C   0  0  0  0  0  0  0  0  0  0  0  0
    2.7399    7.6558    0.0000 C   0  0  0  0  0  0  0  0  0  0  0  0
    4.2072    7.3439    0.0000 C   0  0  0  0  0  0  0  0  0  0  0  0
    5.2109    8.4586    0.0000 C   0  0  0  0  0  0  0  0  0  0  0  0
    4.7473    9.8852    0.0000 C   0  0  0  0  0  0  0  0  0  0  0  0
    5.7510   10.9999    0.0000 C   0  0  0  0  0  0  0  0  0  0  0  0
    5.2875   12.4265    0.0000 O   0  0  0  0  0  0  0  0  0  0  0  0
    7.2182   10.6881    0.0000 N   0  0  0  0  0  0  0  0  0  0  0  0
    8.2219   11.8028    0.0000 O   0  0  0  0  0  0  0  0  0  0  0  0
    3.2801   10.1971    0.0000 C   0  0  0  0  0  0  0  0  0  0  0  0
    2.2764    9.0824    0.0000 C   0  0  0  0  0  0  0  0  0  0  0  0
    2.0481    5.0738    0.0000 C   0  0  0  0  0  0  0  0  0  0  0  0
    3.4184    4.4637    0.0000 O   0  0  0  0  0  0  0  0  0  0  0  0
   -6.3650    3.1235    0.0000 C   0  0  0  0  0  0  0  0  0  0  0  0
   -7.5785    4.0051    0.0000 C   0  0  0  0  0  0  0  0  0  0  0  0
   -7.4217    5.4969    0.0000 O   0  0  0  0  0  0  0  0  0  0  0  0
  1  2  1  0
  2  3  2  0
  3  4  1  0
  4  5  2  0
  5  6  1  0
  6  7  2  0
  7  8  1  0
  8  9  2  0
  9 10  1  0
 10 11  1  0
 11 12  2  0
 12 13  1  0
 13 14  2  0
 14 15  1  0
 15 16  1  0
 16 17  2  0
 17 18  1  0
 18 19  2  0
 19 20  1  0
 20 21  2  0
 21 22  1  0
 22 23  2  0
 23 24  1  0
 24 25  1  0
 25 26  2  0
 26 27  1  0
 27 28  2  0
 28 29  1  0
 29 30  2  0
 19 31  1  0
 31 32  2  0
 32 33  1  0
 33 34  2  0
 34 35  1  0
 35 36  2  0
 36 37  1  0
 37 38  2  0
 38 39  1  0
 39 40  2  0
 40 41  1  0
 41 42  2  0
 41 43  1  0
 43 44  1  0
 40 45  1  0
 45 46  1  0
 36 47  1  0
 47 48  2  0
  5 49  1  0
 49 50  2  0
 50 51  1  0
 50  2  1  0
 10  6  1  0
 15 11  1  0
 32 16  1  0
 47 33  1  0
 24 20  1  0
 30 25  1  0
 46 37  1  0
M  END
>  <Title>  (992) 
idABMDgen8

$$$$

     RDKit          2D

 11 11  0  0  0  0  0  0  0  0999 V2000
    5.2500   -1.2990    0.0000 C   0  0  0  0  0  0  0  0  0  0  0  0
    3.7500   -1.2990    0.0000 C   0  0  0  0  0  0  0  0  0  0  0  0
    3.0000   -2.5981    0.0000 O   0  0  0  0  0  0  0  0  0  0  0  0
    3.0000    0.0000    0.0000 O   0  0  0  0  0  0  0  0  0  0  0  0
    1.5000    0.0000    0.0000 C   0  0  0  0  0  0  0  0  0  0  0  0
    0.7500   -1.2990    0.0000 N   0  0  0  0  0  0  0  0  0  0  0  0
   -0.7500   -1.2990    0.0000 C   0  0  0  0  0  0  0  0  0  0  0  0
   -1.5000    0.0000    0.0000 C   0  0  0  0  0  0  0  0  0  0  0  0
   -0.7500    1.2990    0.0000 C   0  0  0  0  0  0  0  0  0  0  0  0
    0.7500    1.2990    0.0000 C   0  0  0  0  0  0  0  0  0  0  0  0
    1.5000    2.5981    0.0000 C   0  0  0  0  0  0  0  0  0  0  0  0
  1  2  1  0
  2  3  2  0
  2  4  1  0
  4  5  1  0
  5  6  2  0
  6  7  1  0
  7  8  2  0
  8  9  1  0
  9 10  2  0
 10 11  1  0
 10  5  1  0
M  END
>  <Title>  (993) 
idABMEgen8

$$$$

     RDKit          2D

 21 22  0  0  0  0  0  0  0  0999 V2000
    3.0000   -5.1962    0.0000 O   0  0  0  0  0  0  0  0  0  0  0  0
    1.5000   -5.1962    0.0000 C   0  0  0  0  0  0  0  0  0  0  0  0
    0.7500   -3.8971    0.0000 N   0  0  0  0  0  0  0  0  0  0  0  0
    1.5000   -2.5981    0.0000 C   0  0  0  0  0  0  0  0  0  0  0  0
    0.7500   -1.2990    0.0000 C   0  0  0  0  0  0  0  0  0  0  0  0
    1.5000    0.0000    0.0000 C   0  0  0  0  0  0  0  0  0  0  0  0
    0.7500    1.2990    0.0000 C   0  0  0  0  0  0  0  0  0  0  0  0
   -0.7500    1.2990    0.0000 C   0  0  0  0  0  0  0  0  0  0  0  0
   -1.5000    2.5981    0.0000 C   0  0  0  0  0  0  0  0  0  0  0  0
   -3.0000    2.5981    0.0000 O   0  0  0  0  0  0  0  0  0  0  0  0
   -0.7500    3.8971    0.0000 N   0  0  0  0  0  0  0  0  0  0  0  0
   -1.5000    5.1962    0.0000 O   0  0  0  0  0  0  0  0  0  0  0  0
   -1.5000    0.0000    0.0000 N   0  0  0  0  0  0  0  0  0  0  0  0
   -0.7500   -1.2990    0.0000 C   0  0  0  0  0  0  0  0  0  0  0  0
   -1.5000   -2.5981    0.0000 O   0  0  0  0  0  0  0  0  0  0  0  0
    0.7500   -6.4952    0.0000 C   0  0  0  0  0  0  0  0  0  0  0  0
   -0.7500   -6.4952    0.0000 C   0  0  0  0  0  0  0  0  0  0  0  0
   -1.5000   -7.7942    0.0000 C   0  0  0  0  0  0  0  0  0  0  0  0
   -0.7500   -9.0933    0.0000 C   0  0  0  0  0  0  0  0  0  0  0  0
    0.7500   -9.0933    0.0000 C   0  0  0  0  0  0  0  0  0  0  0  0
    1.5000   -7.7942    0.0000 C   0  0  0  0  0  0  0  0  0  0  0  0
  1  2  2  0
  2  3  1  0
  3  4  1  0
  4  5  1  0
  5  6  2  0
  6  7  1  0
  7  8  2  0
  8  9  1  0
  9 10  2  0
  9 11  1  0
 11 12  1  0
  8 13  1  0
 13 14  1  0
 14 15  2  0
  2 16  1  0
 16 17  2  0
 17 18  1  0
 18 19  2  0
 19 20  1  0
 20 21  2  0
 14  5  1  0
 21 16  1  0
M  END
>  <Title>  (994) 
idABMFgen8

$$$$

     RDKit          2D

 13 13  0  0  0  0  0  0  0  0999 V2000
    4.3978    0.0000    0.0000 C   0  0  0  0  0  0  0  0  0  0  0  0
    2.8978    0.0000    0.0000 C   0  0  0  0  0  0  0  0  0  0  0  0
    2.5095   -1.4489    0.0000 C   0  0  0  0  0  0  0  0  0  0  0  0
    1.4489   -2.5095    0.0000 C   0  0  0  0  0  0  0  0  0  0  0  0
   -0.0000   -2.8978    0.0000 C   0  0  0  0  0  0  0  0  0  0  0  0
   -1.4489   -2.5095    0.0000 C   0  0  0  0  0  0  0  0  0  0  0  0
   -2.5095   -1.4489    0.0000 C   0  0  0  0  0  0  0  0  0  0  0  0
   -2.8978    0.0000    0.0000 C   0  0  0  0  0  0  0  0  0  0  0  0
   -2.5095    1.4489    0.0000 C   0  0  0  0  0  0  0  0  0  0  0  0
   -1.4489    2.5095    0.0000 C   0  0  0  0  0  0  0  0  0  0  0  0
    0.0000    2.8978    0.0000 C   0  0  0  0  0  0  0  0  0  0  0  0
    1.4489    2.5095    0.0000 C   0  0  0  0  0  0  0  0  0  0  0  0
    2.5095    1.4489    0.0000 C   0  0  0  0  0  0  0  0  0  0  0  0
  1  2  1  0
  2  3  2  0
  3  4  1  0
  4  5  2  0
  5  6  1  0
  6  7  2  0
  7  8  1  0
  8  9  2  0
  9 10  1  0
 10 11  2  0
 11 12  1  0
 12 13  2  0
 13  2  1  0
M  END
>  <Title>  (995) 
idABMGgen8

$$$$

     RDKit          2D

 16 16  0  0  0  0  0  0  0  0999 V2000
    6.1771   -1.2990    0.0000 C   0  0  0  0  0  0  0  0  0  0  0  0
    4.6771   -1.2990    0.0000 C   0  0  0  0  0  0  0  0  0  0  0  0
    3.9271   -2.5981    0.0000 O   0  0  0  0  0  0  0  0  0  0  0  0
    3.9271    0.0000    0.0000 O   0  0  0  0  0  0  0  0  0  0  0  0
    2.4271    0.0000    0.0000 C   0  0  0  0  0  0  0  0  0  0  0  0
    1.9635   -1.4266    0.0000 C   0  0  0  0  0  0  0  0  0  0  0  0
    0.7500   -2.3083    0.0000 C   0  0  0  0  0  0  0  0  0  0  0  0
   -0.7500   -2.3083    0.0000 C   0  0  0  0  0  0  0  0  0  0  0  0
   -1.9635   -1.4266    0.0000 C   0  0  0  0  0  0  0  0  0  0  0  0
   -2.4271    0.0000    0.0000 C   0  0  0  0  0  0  0  0  0  0  0  0
   -3.9271    0.0000    0.0000 F   0  0  0  0  0  0  0  0  0  0  0  0
   -1.9635    1.4266    0.0000 C   0  0  0  0  0  0  0  0  0  0  0  0
   -3.1771    2.3083    0.0000 C   0  0  0  0  0  0  0  0  0  0  0  0
   -0.7500    2.3083    0.0000 C   0  0  0  0  0  0  0  0  0  0  0  0
    0.7500    2.3083    0.0000 C   0  0  0  0  0  0  0  0  0  0  0  0
    1.9635    1.4266    0.0000 C   0  0  0  0  0  0  0  0  0  0  0  0
  1  2  1  0
  2  3  2  0
  2  4  1  0
  4  5  1  0
  5  6  2  0
  6  7  1  0
  7  8  2  0
  8  9  1  0
  9 10  2  0
 10 11  1  0
 10 12  1  0
 12 13  1  0
 12 14  2  0
 14 15  1  0
 15 16  2  0
 16  5  1  0
M  END
>  <Title>  (996) 
idABMHgen8

$$$$

     RDKit          2D

 46 52  0  0  0  0  0  0  0  0999 V2000
   -0.5548    0.3164    0.0000 C   0  0  0  0  0  0  0  0  0  0  0  0
   -1.0183    1.7430    0.0000 C   0  0  0  0  0  0  0  0  0  0  0  0
   -2.5137    1.8606    0.0000 C   0  0  0  0  0  0  0  0  0  0  0  0
   -3.4879    3.0012    0.0000 C   0  0  0  0  0  0  0  0  0  0  0  0
   -3.3702    4.4966    0.0000 C   0  0  0  0  0  0  0  0  0  0  0  0
   -2.2296    5.4708    0.0000 C   0  0  0  0  0  0  0  0  0  0  0  0
   -0.7342    5.3531    0.0000 C   0  0  0  0  0  0  0  0  0  0  0  0
   -0.0532    6.6896    0.0000 N   0  0  0  0  0  0  0  0  0  0  0  0
    1.4447    6.7681    0.0000 C   0  0  0  0  0  0  0  0  0  0  0  0
    2.2617    8.0261    0.0000 N   0  0  0  0  0  0  0  0  0  0  0  0
    3.7106    7.6379    0.0000 N   0  0  0  0  0  0  0  0  0  0  0  0
    3.7891    6.1400    0.0000 N   0  0  0  0  0  0  0  0  0  0  0  0
    2.3887    5.6024    0.0000 N   0  0  0  0  0  0  0  0  0  0  0  0
    2.0005    4.1535    0.0000 C   0  0  0  0  0  0  0  0  0  0  0  0
    0.6001    3.6160    0.0000 C   0  0  0  0  0  0  0  0  0  0  0  0
    0.6786    2.1180    0.0000 C   0  0  0  0  0  0  0  0  0  0  0  0
    2.1275    1.7298    0.0000 C   0  0  0  0  0  0  0  0  0  0  0  0
    2.6651    0.3294    0.0000 C   0  0  0  0  0  0  0  0  0  0  0  0
    1.7211   -0.8363    0.0000 C   0  0  0  0  0  0  0  0  0  0  0  0
    2.2586   -2.2367    0.0000 C   0  0  0  0  0  0  0  0  0  0  0  0
    3.7402   -2.4713    0.0000 C   0  0  0  0  0  0  0  0  0  0  0  0
    4.6842   -1.3056    0.0000 N   0  0  0  0  0  0  0  0  0  0  0  0
    4.1466    0.0948    0.0000 C   0  0  0  0  0  0  0  0  0  0  0  0
    5.0906    1.2605    0.0000 C   0  0  0  0  0  0  0  0  0  0  0  0
    4.7024    2.7094    0.0000 N   0  0  0  0  0  0  0  0  0  0  0  0
    5.9604    3.5263    0.0000 N   0  0  0  0  0  0  0  0  0  0  0  0
    7.1261    2.5824    0.0000 N   0  0  0  0  0  0  0  0  0  0  0  0
    6.5885    1.1820    0.0000 N   0  0  0  0  0  0  0  0  0  0  0  0
    7.4055   -0.0760    0.0000 C   0  0  0  0  0  0  0  0  0  0  0  0
    6.7245   -1.4125    0.0000 C   0  0  0  0  0  0  0  0  0  0  0  0
    7.5415   -2.6705    0.0000 C   0  0  0  0  0  0  0  0  0  0  0  0
    9.0394   -2.5920    0.0000 C   0  0  0  0  0  0  0  0  0  0  0  0
    9.7204   -1.2555    0.0000 C   0  0  0  0  0  0  0  0  0  0  0  0
    8.9034    0.0025    0.0000 C   0  0  0  0  0  0  0  0  0  0  0  0
    9.5844    1.3390    0.0000 C   0  0  0  0  0  0  0  0  0  0  0  0
    8.9034    2.6755    0.0000 C   0  0  0  0  0  0  0  0  0  0  0  0
    9.9641    3.7362    0.0000 C   0  0  0  0  0  0  0  0  0  0  0  0
   11.3006    3.0552    0.0000 C   0  0  0  0  0  0  0  0  0  0  0  0
   12.6371    3.7362    0.0000 C   0  0  0  0  0  0  0  0  0  0  0  0
   11.0659    1.5736    0.0000 C   0  0  0  0  0  0  0  0  0  0  0  0
   12.1266    0.5130    0.0000 O   0  0  0  0  0  0  0  0  0  0  0  0
    2.9445    2.9878    0.0000 C   0  0  0  0  0  0  0  0  0  0  0  0
    3.9902    3.3076    0.0000 O   0  0  0  0  0  0  0  0  0  0  0  0
    0.2400    4.2125    0.0000 C   0  0  0  0  0  0  0  0  0  0  0  0
    1.7363    4.3171    0.0000 O   0  0  0  0  0  0  0  0  0  0  0  0
    0.1223    2.7171    0.0000 N   0  0  0  0  0  0  0  0  0  0  0  0
  1  2  1  0
  2  3  2  0
  3  4  1  0
  4  5  2  0
  5  6  1  0
  6  7  2  0
  7  8  1  0
  8  9  1  0
  9 10  2  0
 10 11  1  0
 11 12  2  0
 12 13  1  0
 13 14  1  0
 14 15  2  0
 15 16  1  0
 16 17  2  0
 17 18  1  0
 18 19  2  0
 19 20  1  0
 20 21  2  0
 21 22  1  0
 22 23  2  0
 23 24  1  0
 24 25  2  0
 25 26  1  0
 26 27  2  0
 27 28  1  0
 28 29  1  0
 29 30  2  0
 30 31  1  0
 31 32  2  0
 32 33  1  0
 33 34  2  0
 34 35  1  0
 35 36  2  0
 36 37  1  0
 37 38  2  0
 38 39  1  0
 38 40  1  0
 40 41  2  0
 17 42  1  0
 42 43  2  0
  7 44  1  0
 44 45  2  0
 44 46  1  0
 46  2  1  0
 13  9  1  0
 42 14  1  0
 23 18  1  0
 28 24  1  0
 34 29  1  0
 40 35  1  0
M  END
>  <Title>  (997) 
idABMIgen8

$$$$

     RDKit          2D

 42 47  0  0  0  0  0  0  0  0999 V2000
    3.0000    0.0000    0.0000 C   0  0  0  0  0  0  0  0  0  0  0  0
    1.5000    0.0000    0.0000 C   0  0  0  0  0  0  0  0  0  0  0  0
    0.7500   -1.2990    0.0000 C   0  0  0  0  0  0  0  0  0  0  0  0
   -0.7500   -1.2990    0.0000 C   0  0  0  0  0  0  0  0  0  0  0  0
   -1.5000    0.0000    0.0000 C   0  0  0  0  0  0  0  0  0  0  0  0
   -3.0000    0.0000    0.0000 N   0  0  0  0  0  0  0  0  0  0  0  0
   -3.7500    1.2990    0.0000 N   0  0  0  0  0  0  0  0  0  0  0  0
   -5.2500    1.2990    0.0000 N   0  0  0  0  0  0  0  0  0  0  0  0
   -6.0000    0.0000    0.0000 N   0  0  0  0  0  0  0  0  0  0  0  0
   -5.2500   -1.2990    0.0000 N   0  0  0  0  0  0  0  0  0  0  0  0
   -3.7500   -1.2990    0.0000 N   0  0  0  0  0  0  0  0  0  0  0  0
   -3.0000   -2.5981    0.0000 C   0  0  0  0  0  0  0  0  0  0  0  0
   -1.5082   -2.7549    0.0000 C   0  0  0  0  0  0  0  0  0  0  0  0
   -1.1963   -4.2221    0.0000 C   0  0  0  0  0  0  0  0  0  0  0  0
   -2.4954   -4.9721    0.0000 C   0  0  0  0  0  0  0  0  0  0  0  0
   -2.6522   -6.4639    0.0000 C   0  0  0  0  0  0  0  0  0  0  0  0
   -1.4387   -7.3456    0.0000 O   0  0  0  0  0  0  0  0  0  0  0  0
   -4.0225   -7.0740    0.0000 N   0  0  0  0  0  0  0  0  0  0  0  0
   -4.1793   -8.5658    0.0000 C   0  0  0  0  0  0  0  0  0  0  0  0
   -2.9658   -9.4474    0.0000 O   0  0  0  0  0  0  0  0  0  0  0  0
   -5.5496   -9.1759    0.0000 C   0  0  0  0  0  0  0  0  0  0  0  0
   -5.8615  -10.6431    0.0000 N   0  0  0  0  0  0  0  0  0  0  0  0
   -7.3533  -10.7999    0.0000 N   0  0  0  0  0  0  0  0  0  0  0  0
   -7.9634   -9.4296    0.0000 N   0  0  0  0  0  0  0  0  0  0  0  0
   -6.8486   -8.4259    0.0000 N   0  0  0  0  0  0  0  0  0  0  0  0
   -7.0054   -6.9341    0.0000 C   0  0  0  0  0  0  0  0  0  0  0  0
   -5.8907   -5.9304    0.0000 C   0  0  0  0  0  0  0  0  0  0  0  0
   -6.5008   -4.5601    0.0000 C   0  0  0  0  0  0  0  0  0  0  0  0
   -7.9926   -4.7169    0.0000 C   0  0  0  0  0  0  0  0  0  0  0  0
   -8.9963   -3.6021    0.0000 C   0  0  0  0  0  0  0  0  0  0  0  0
   -8.5328   -2.1756    0.0000 C   0  0  0  0  0  0  0  0  0  0  0  0
   -9.5365   -1.0608    0.0000 C   0  0  0  0  0  0  0  0  0  0  0  0
  -11.0037   -1.3727    0.0000 N   0  0  0  0  0  0  0  0  0  0  0  0
  -11.4672   -2.7993    0.0000 N   0  0  0  0  0  0  0  0  0  0  0  0
  -10.4635   -3.9140    0.0000 C   0  0  0  0  0  0  0  0  0  0  0  0
   -8.3045   -6.1841    0.0000 C   0  0  0  0  0  0  0  0  0  0  0  0
   -9.6748   -6.7942    0.0000 O   0  0  0  0  0  0  0  0  0  0  0  0
   -3.6101   -3.9684    0.0000 C   0  0  0  0  0  0  0  0  0  0  0  0
   -5.0773   -4.2803    0.0000 O   0  0  0  0  0  0  0  0  0  0  0  0
   -0.7500    1.2990    0.0000 C   0  0  0  0  0  0  0  0  0  0  0  0
   -1.5000    2.5981    0.0000 O   0  0  0  0  0  0  0  0  0  0  0  0
    0.7500    1.2990    0.0000 N   0  0  0  0  0  0  0  0  0  0  0  0
  1  2  1  0
  2  3  2  0
  3  4  1  0
  4  5  2  0
  5  6  1  0
  6  7  1  0
  7  8  2  0
  8  9  1  0
  9 10  2  0
 10 11  1  0
 11 12  1  0
 12 13  2  0
 13 14  1  0
 14 15  2  0
 15 16  1  0
 16 17  2  0
 16 18  1  0
 18 19  1  0
 19 20  2  0
 19 21  1  0
 21 22  2  0
 22 23  1  0
 23 24  2  0
 24 25  1  0
 25 26  1  0
 26 27  2  0
 27 28  1  0
 28 29  2  0
 29 30  1  0
 30 31  2  0
 31 32  1  0
 32 33  2  0
 33 34  1  0
 34 35  2  0
 29 36  1  0
 36 37  2  0
 15 38  1  0
 38 39  2  0
  5 40  1  0
 40 41  2  0
 40 42  1  0
 42  2  1  0
 11  6  1  0
 38 12  1  0
 25 21  1  0
 36 26  1  0
 35 30  1  0
M  END
>  <Title>  (998) 
idABMJgen8

$$$$

     RDKit          2D

 48 55  0  0  0  0  0  0  0  0999 V2000
   -3.5718    0.8070    0.0000 C   0  0  0  0  0  0  0  0  0  0  0  0
   -2.2841    1.5763    0.0000 C   0  0  0  0  0  0  0  0  0  0  0  0
   -1.0323    0.7500    0.0000 C   0  0  0  0  0  0  0  0  0  0  0  0
    0.3943    1.2135    0.0000 C   0  0  0  0  0  0  0  0  0  0  0  0
    0.9214    2.6179    0.0000 C   0  0  0  0  0  0  0  0  0  0  0  0
    2.4153    2.7523    0.0000 C   0  0  0  0  0  0  0  0  0  0  0  0
    3.1847    4.0400    0.0000 N   0  0  0  0  0  0  0  0  0  0  0  0
    4.6471    3.7062    0.0000 N   0  0  0  0  0  0  0  0  0  0  0  0
    4.7815    2.2123    0.0000 N   0  0  0  0  0  0  0  0  0  0  0  0
    3.4022    1.6227    0.0000 N   0  0  0  0  0  0  0  0  0  0  0  0
    3.0684    0.1603    0.0000 C   0  0  0  0  0  0  0  0  0  0  0  0
    1.6351   -0.2818    0.0000 C   0  0  0  0  0  0  0  0  0  0  0  0
    1.3013   -1.7442    0.0000 C   0  0  0  0  0  0  0  0  0  0  0  0
    2.4009   -2.7644    0.0000 C   0  0  0  0  0  0  0  0  0  0  0  0
    2.0671   -4.2268    0.0000 C   0  0  0  0  0  0  0  0  0  0  0  0
    3.1667   -5.2471    0.0000 O   0  0  0  0  0  0  0  0  0  0  0  0
    0.6337   -4.6690    0.0000 N   0  0  0  0  0  0  0  0  0  0  0  0
    0.3000   -6.1314    0.0000 C   0  0  0  0  0  0  0  0  0  0  0  0
    1.2869   -7.2610    0.0000 N   0  0  0  0  0  0  0  0  0  0  0  0
    0.5175   -8.5486    0.0000 N   0  0  0  0  0  0  0  0  0  0  0  0
   -0.9449   -8.2149    0.0000 N   0  0  0  0  0  0  0  0  0  0  0  0
   -1.0793   -6.7209    0.0000 N   0  0  0  0  0  0  0  0  0  0  0  0
   -2.3670   -5.9516    0.0000 C   0  0  0  0  0  0  0  0  0  0  0  0
   -2.3446   -4.4517    0.0000 C   0  0  0  0  0  0  0  0  0  0  0  0
   -3.6322   -3.6824    0.0000 C   0  0  0  0  0  0  0  0  0  0  0  0
   -4.9423   -4.4129    0.0000 C   0  0  0  0  0  0  0  0  0  0  0  0
   -4.9648   -5.9127    0.0000 N   0  0  0  0  0  0  0  0  0  0  0  0
   -3.6771   -6.6820    0.0000 C   0  0  0  0  0  0  0  0  0  0  0  0
   -3.6996   -8.1819    0.0000 C   0  0  0  0  0  0  0  0  0  0  0  0
   -2.4994   -9.0816    0.0000 N   0  0  0  0  0  0  0  0  0  0  0  0
   -2.9842  -10.5011    0.0000 N   0  0  0  0  0  0  0  0  0  0  0  0
   -4.4840  -10.4787    0.0000 N   0  0  0  0  0  0  0  0  0  0  0  0
   -4.9261   -9.0453    0.0000 N   0  0  0  0  0  0  0  0  0  0  0  0
   -6.3456   -8.5605    0.0000 C   0  0  0  0  0  0  0  0  0  0  0  0
   -6.6355   -7.0888    0.0000 C   0  0  0  0  0  0  0  0  0  0  0  0
   -8.0550   -6.6039    0.0000 C   0  0  0  0  0  0  0  0  0  0  0  0
   -9.1846   -7.5908    0.0000 C   0  0  0  0  0  0  0  0  0  0  0  0
   -8.8947   -9.0626    0.0000 C   0  0  0  0  0  0  0  0  0  0  0  0
   -7.4752   -9.5474    0.0000 C   0  0  0  0  0  0  0  0  0  0  0  0
    3.8342   -2.3223    0.0000 C   0  0  0  0  0  0  0  0  0  0  0  0
    4.1680   -0.8599    0.0000 N   0  0  0  0  0  0  0  0  0  0  0  0
    0.1520    3.9056    0.0000 N   0  0  0  0  0  0  0  0  0  0  0  0
    0.8028    5.2570    0.0000 C   0  0  0  0  0  0  0  0  0  0  0  0
   -0.2814    6.2936    0.0000 C   0  0  0  0  0  0  0  0  0  0  0  0
   -1.6022    5.5828    0.0000 C   0  0  0  0  0  0  0  0  0  0  0  0
   -1.3344    4.1069    0.0000 C   0  0  0  0  0  0  0  0  0  0  0  0
   -2.4186    3.0703    0.0000 C   0  0  0  0  0  0  0  0  0  0  0  0
   -3.8230    3.5974    0.0000 O   0  0  0  0  0  0  0  0  0  0  0  0
  1  2  1  0
  2  3  2  0
  3  4  1  0
  4  5  2  0
  5  6  1  0
  6  7  2  0
  7  8  1  0
  8  9  2  0
  9 10  1  0
 10 11  1  0
 11 12  2  0
 12 13  1  0
 13 14  2  0
 14 15  1  0
 15 16  2  0
 15 17  1  0
 17 18  1  0
 18 19  2  0
 19 20  1  0
 20 21  2  0
 21 22  1  0
 22 23  1  0
 23 24  2  0
 24 25  1  0
 25 26  2  0
 26 27  1  0
 27 28  2  0
 28 29  1  0
 29 30  2  0
 30 31  1  0
 31 32  2  0
 32 33  1  0
 33 34  1  0
 34 35  2  0
 35 36  1  0
 36 37  2  0
 37 38  1  0
 38 39  2  0
 14 40  1  0
 40 41  2  0
  5 42  1  0
 42 43  1  0
 43 44  2  0
 44 45  1  0
 45 46  2  0
 46 47  1  0
 47 48  2  0
 47  2  1  0
 10  6  1  0
 41 11  1  0
 46 42  1  0
 22 18  1  0
 28 23  1  0
 33 29  1  0
 39 34  1  0
M  END
>  <Title>  (999) 
idABMKgen8

$$$$

     RDKit          2D

 32 36  0  0  0  0  0  0  0  0999 V2000
    3.0000    0.0000    0.0000 C   0  0  0  0  0  0  0  0  0  0  0  0
    1.5000    0.0000    0.0000 C   0  0  0  0  0  0  0  0  0  0  0  0
    0.7500   -1.2990    0.0000 C   0  0  0  0  0  0  0  0  0  0  0  0
   -0.7500   -1.2990    0.0000 C   0  0  0  0  0  0  0  0  0  0  0  0
   -1.5000    0.0000    0.0000 C   0  0  0  0  0  0  0  0  0  0  0  0
   -3.0000    0.0000    0.0000 C   0  0  0  0  0  0  0  0  0  0  0  0
   -3.8817   -1.2135    0.0000 N   0  0  0  0  0  0  0  0  0  0  0  0
   -5.3083   -0.7500    0.0000 N   0  0  0  0  0  0  0  0  0  0  0  0
   -5.3083    0.7500    0.0000 N   0  0  0  0  0  0  0  0  0  0  0  0
   -3.8817    1.2135    0.0000 N   0  0  0  0  0  0  0  0  0  0  0  0
   -3.4182    2.6401    0.0000 C   0  0  0  0  0  0  0  0  0  0  0  0
   -4.2998    3.8536    0.0000 C   0  0  0  0  0  0  0  0  0  0  0  0
   -3.4182    5.0672    0.0000 C   0  0  0  0  0  0  0  0  0  0  0  0
   -1.9916    4.6036    0.0000 C   0  0  0  0  0  0  0  0  0  0  0  0
   -0.7780    5.4853    0.0000 C   0  0  0  0  0  0  0  0  0  0  0  0
   -0.9348    6.9771    0.0000 O   0  0  0  0  0  0  0  0  0  0  0  0
    0.5923    4.8752    0.0000 N   0  0  0  0  0  0  0  0  0  0  0  0
    1.8058    5.7569    0.0000 C   0  0  0  0  0  0  0  0  0  0  0  0
    1.8058    7.2569    0.0000 N   0  0  0  0  0  0  0  0  0  0  0  0
    3.2324    7.7204    0.0000 N   0  0  0  0  0  0  0  0  0  0  0  0
    4.1141    6.5069    0.0000 N   0  0  0  0  0  0  0  0  0  0  0  0
    3.2324    5.2934    0.0000 N   0  0  0  0  0  0  0  0  0  0  0  0
    3.6959    3.8668    0.0000 C   0  0  0  0  0  0  0  0  0  0  0  0
    2.6922    2.7521    0.0000 C   0  0  0  0  0  0  0  0  0  0  0  0
    3.1557    1.3255    0.0000 C   0  0  0  0  0  0  0  0  0  0  0  0
    4.6230    1.0136    0.0000 C   0  0  0  0  0  0  0  0  0  0  0  0
    5.6267    2.1283    0.0000 C   0  0  0  0  0  0  0  0  0  0  0  0
    5.1631    3.5549    0.0000 C   0  0  0  0  0  0  0  0  0  0  0  0
   -1.9916    3.1036    0.0000 C   0  0  0  0  0  0  0  0  0  0  0  0
   -0.7780    2.2220    0.0000 O   0  0  0  0  0  0  0  0  0  0  0  0
   -0.7500    1.2990    0.0000 C   0  0  0  0  0  0  0  0  0  0  0  0
    0.7500    1.2990    0.0000 C   0  0  0  0  0  0  0  0  0  0  0  0
  1  2  1  0
  2  3  2  0
  3  4  1  0
  4  5  2  0
  5  6  1  0
  6  7  2  0
  7  8  1  0
  8  9  2  0
  9 10  1  0
 10 11  1  0
 11 12  2  0
 12 13  1  0
 13 14  2  0
 14 15  1  0
 15 16  2  0
 15 17  1  0
 17 18  1  0
 18 19  2  0
 19 20  1  0
 20 21  2  0
 21 22  1  0
 22 23  1  0
 23 24  2  0
 24 25  1  0
 25 26  2  0
 26 27  1  0
 27 28  2  0
 14 29  1  0
 29 30  2  0
  5 31  1  0
 31 32  2  0
 32  2  1  0
 10  6  1  0
 29 11  1  0
 22 18  1  0
 28 23  1  0
M  END
>  <Title>  (1000) 
idABMLgen8

$$$$

     RDKit          2D

 11 11  0  0  0  0  0  0  0  0999 V2000
    3.4598   -0.0000    0.0000 C   0  0  0  0  0  0  0  0  0  0  0  0
    1.9598    0.0000    0.0000 C   0  0  0  0  0  0  0  0  0  0  0  0
    1.3858   -1.3858    0.0000 C   0  0  0  0  0  0  0  0  0  0  0  0
   -0.0000   -1.9598    0.0000 C   0  0  0  0  0  0  0  0  0  0  0  0
   -1.3858   -1.3858    0.0000 C   0  0  0  0  0  0  0  0  0  0  0  0
   -1.9598    0.0000    0.0000 C   0  0  0  0  0  0  0  0  0  0  0  0
   -1.3858    1.3858    0.0000 C   0  0  0  0  0  0  0  0  0  0  0  0
   -2.4465    2.4465    0.0000 F   0  0  0  0  0  0  0  0  0  0  0  0
    0.0000    1.9598    0.0000 C   0  0  0  0  0  0  0  0  0  0  0  0
    1.3858    1.3858    0.0000 C   0  0  0  0  0  0  0  0  0  0  0  0
    2.4465    2.4465    0.0000 F   0  0  0  0  0  0  0  0  0  0  0  0
  1  2  1  0
  2  3  2  0
  3  4  1  0
  4  5  2  0
  5  6  1  0
  6  7  2  0
  7  8  1  0
  7  9  1  0
  9 10  2  0
 10 11  1  0
 10  2  1  0
M  END
>  <Title>  (1001) 
idABMMgen8

$$$$

     RDKit          2D

 30 34  0  0  0  0  0  0  0  0999 V2000
    3.2286   -0.0000    0.0000 C   0  0  0  0  0  0  0  0  0  0  0  0
    1.7286    0.0000    0.0000 C   0  0  0  0  0  0  0  0  0  0  0  0
    1.0777    1.3515    0.0000 C   0  0  0  0  0  0  0  0  0  0  0  0
   -0.3846    1.6852    0.0000 C   0  0  0  0  0  0  0  0  0  0  0  0
   -1.5574    0.7500    0.0000 C   0  0  0  0  0  0  0  0  0  0  0  0
   -2.9088    1.4008    0.0000 C   0  0  0  0  0  0  0  0  0  0  0  0
   -4.2297    0.6900    0.0000 N   0  0  0  0  0  0  0  0  0  0  0  0
   -5.3139    1.7266    0.0000 N   0  0  0  0  0  0  0  0  0  0  0  0
   -4.6631    3.0781    0.0000 N   0  0  0  0  0  0  0  0  0  0  0  0
   -3.1767    2.8767    0.0000 N   0  0  0  0  0  0  0  0  0  0  0  0
   -2.1401    3.9609    0.0000 C   0  0  0  0  0  0  0  0  0  0  0  0
   -0.6829    3.6053    0.0000 C   0  0  0  0  0  0  0  0  0  0  0  0
    0.3537    4.6895    0.0000 C   0  0  0  0  0  0  0  0  0  0  0  0
   -0.0669    6.1293    0.0000 C   0  0  0  0  0  0  0  0  0  0  0  0
    0.9697    7.2135    0.0000 C   0  0  0  0  0  0  0  0  0  0  0  0
    0.7019    8.6894    0.0000 N   0  0  0  0  0  0  0  0  0  0  0  0
    2.0228    9.4002    0.0000 N   0  0  0  0  0  0  0  0  0  0  0  0
    3.1069    8.3636    0.0000 N   0  0  0  0  0  0  0  0  0  0  0  0
    2.4561    7.0121    0.0000 N   0  0  0  0  0  0  0  0  0  0  0  0
    3.1669    5.6912    0.0000 C   0  0  0  0  0  0  0  0  0  0  0  0
    2.3784    4.4152    0.0000 C   0  0  0  0  0  0  0  0  0  0  0  0
    3.0892    3.0943    0.0000 C   0  0  0  0  0  0  0  0  0  0  0  0
    4.5885    3.0495    0.0000 C   0  0  0  0  0  0  0  0  0  0  0  0
    5.3771    4.3255    0.0000 C   0  0  0  0  0  0  0  0  0  0  0  0
    4.6663    5.6464    0.0000 C   0  0  0  0  0  0  0  0  0  0  0  0
   -1.5241    6.4849    0.0000 C   0  0  0  0  0  0  0  0  0  0  0  0
   -2.5607    5.4007    0.0000 C   0  0  0  0  0  0  0  0  0  0  0  0
   -1.5574   -0.7500    0.0000 N   0  0  0  0  0  0  0  0  0  0  0  0
   -0.3846   -1.6852    0.0000 N   0  0  0  0  0  0  0  0  0  0  0  0
    1.0777   -1.3515    0.0000 N   0  0  0  0  0  0  0  0  0  0  0  0
  1  2  1  0
  2  3  2  0
  3  4  1  0
  4  5  2  0
  5  6  1  0
  6  7  2  0
  7  8  1  0
  8  9  2  0
  9 10  1  0
 10 11  1  0
 11 12  2  0
 12 13  1  0
 13 14  2  0
 14 15  1  0
 15 16  2  0
 16 17  1  0
 17 18  2  0
 18 19  1  0
 19 20  1  0
 20 21  2  0
 21 22  1  0
 22 23  2  0
 23 24  1  0
 24 25  2  0
 14 26  1  0
 26 27  2  0
  5 28  1  0
 28 29  2  0
 29 30  1  0
 30  2  1  0
 10  6  1  0
 27 11  1  0
 19 15  1  0
 25 20  1  0
M  END
>  <Title>  (1002) 
idABMNgen8

$$$$

     RDKit          2D

 25 25  0  0  0  0  0  0  0  0999 V2000
    7.5200   -1.2990    0.0000 C   0  0  0  0  0  0  0  0  0  0  0  0
    6.7700    0.0000    0.0000 O   0  0  0  0  0  0  0  0  0  0  0  0
    5.2700    0.0000    0.0000 C   0  0  0  0  0  0  0  0  0  0  0  0
    5.0565   -1.4847    0.0000 C   0  0  0  0  0  0  0  0  0  0  0  0
    4.4334   -2.8492    0.0000 C   0  0  0  0  0  0  0  0  0  0  0  0
    3.4511   -3.9828    0.0000 C   0  0  0  0  0  0  0  0  0  0  0  0
    2.1892   -4.7938    0.0000 C   0  0  0  0  0  0  0  0  0  0  0  0
    0.7500   -5.2164    0.0000 C   0  0  0  0  0  0  0  0  0  0  0  0
   -0.7500   -5.2164    0.0000 C   0  0  0  0  0  0  0  0  0  0  0  0
   -2.1892   -4.7938    0.0000 C   0  0  0  0  0  0  0  0  0  0  0  0
   -3.4511   -3.9828    0.0000 C   0  0  0  0  0  0  0  0  0  0  0  0
   -4.4334   -2.8492    0.0000 C   0  0  0  0  0  0  0  0  0  0  0  0
   -5.0565   -1.4847    0.0000 C   0  0  0  0  0  0  0  0  0  0  0  0
   -5.2700    0.0000    0.0000 C   0  0  0  0  0  0  0  0  0  0  0  0
   -5.0565    1.4847    0.0000 C   0  0  0  0  0  0  0  0  0  0  0  0
   -4.4334    2.8492    0.0000 C   0  0  0  0  0  0  0  0  0  0  0  0
   -3.4511    3.9828    0.0000 C   0  0  0  0  0  0  0  0  0  0  0  0
   -2.1892    4.7938    0.0000 C   0  0  0  0  0  0  0  0  0  0  0  0
   -0.7500    5.2164    0.0000 C   0  0  0  0  0  0  0  0  0  0  0  0
    0.7500    5.2164    0.0000 C   0  0  0  0  0  0  0  0  0  0  0  0
    2.1892    4.7938    0.0000 C   0  0  0  0  0  0  0  0  0  0  0  0
    3.4511    3.9828    0.0000 C   0  0  0  0  0  0  0  0  0  0  0  0
    4.4334    5.1164    0.0000 C   0  0  0  0  0  0  0  0  0  0  0  0
    4.4334    2.8492    0.0000 C   0  0  0  0  0  0  0  0  0  0  0  0
    5.0565    1.4847    0.0000 C   0  0  0  0  0  0  0  0  0  0  0  0
  1  2  1  0
  2  3  1  0
  3  4  2  0
  4  5  1  0
  5  6  2  0
  6  7  1  0
  7  8  2  0
  8  9  1  0
  9 10  2  0
 10 11  1  0
 11 12  2  0
 12 13  1  0
 13 14  2  0
 14 15  1  0
 15 16  2  0
 16 17  1  0
 17 18  2  0
 18 19  1  0
 19 20  2  0
 20 21  1  0
 21 22  2  0
 22 23  1  0
 22 24  1  0
 24 25  2  0
 25  3  1  0
M  END
>  <Title>  (1003) 
idABMOgen8

$$$$

     RDKit          2D

 23 23  0  0  0  0  0  0  0  0999 V2000
    6.0567    0.0000    0.0000 C   0  0  0  0  0  0  0  0  0  0  0  0
    4.5567    0.0000    0.0000 C   0  0  0  0  0  0  0  0  0  0  0  0
    4.3098    1.4795    0.0000 C   0  0  0  0  0  0  0  0  0  0  0  0
    3.5958    2.7988    0.0000 C   0  0  0  0  0  0  0  0  0  0  0  0
    2.4923    3.8147    0.0000 C   0  0  0  0  0  0  0  0  0  0  0  0
    1.1186    4.4172    0.0000 C   0  0  0  0  0  0  0  0  0  0  0  0
   -0.3763    4.5411    0.0000 C   0  0  0  0  0  0  0  0  0  0  0  0
   -0.5002    6.0360    0.0000 N   0  0  0  0  0  0  0  0  0  0  0  0
   -1.8304    4.1729    0.0000 C   0  0  0  0  0  0  0  0  0  0  0  0
   -2.4329    5.5465    0.0000 O   0  0  0  0  0  0  0  0  0  0  0  0
   -3.0861    3.3524    0.0000 C   0  0  0  0  0  0  0  0  0  0  0  0
   -4.0075    2.1687    0.0000 C   0  0  0  0  0  0  0  0  0  0  0  0
   -4.4945    0.7500    0.0000 C   0  0  0  0  0  0  0  0  0  0  0  0
   -4.4945   -0.7500    0.0000 C   0  0  0  0  0  0  0  0  0  0  0  0
   -4.0075   -2.1687    0.0000 C   0  0  0  0  0  0  0  0  0  0  0  0
   -3.0861   -3.3524    0.0000 C   0  0  0  0  0  0  0  0  0  0  0  0
   -1.8304   -4.1729    0.0000 C   0  0  0  0  0  0  0  0  0  0  0  0
   -0.3763   -4.5411    0.0000 C   0  0  0  0  0  0  0  0  0  0  0  0
    1.1186   -4.4172    0.0000 C   0  0  0  0  0  0  0  0  0  0  0  0
    2.4923   -3.8147    0.0000 C   0  0  0  0  0  0  0  0  0  0  0  0
    3.5958   -2.7988    0.0000 C   0  0  0  0  0  0  0  0  0  0  0  0
    4.3098   -1.4795    0.0000 C   0  0  0  0  0  0  0  0  0  0  0  0
    5.7285   -1.9666    0.0000 N   0  0  0  0  0  0  0  0  0  0  0  0
  1  2  1  0
  2  3  2  0
  3  4  1  0
  4  5  2  0
  5  6  1  0
  6  7  2  0
  7  8  1  0
  7  9  1  0
  9 10  1  0
  9 11  1  0
 11 12  2  0
 12 13  1  0
 13 14  2  0
 14 15  1  0
 15 16  2  0
 16 17  1  0
 17 18  2  0
 18 19  1  0
 19 20  2  0
 20 21  1  0
 21 22  2  0
 22 23  1  0
 22  2  1  0
M  END
>  <Title>  (1004) 
idABMPgen8

$$$$

     RDKit          2D

 14 14  0  0  0  0  0  0  0  0999 V2000
    4.1621    0.0000    0.0000 C   0  0  0  0  0  0  0  0  0  0  0  0
    2.6621    0.0000    0.0000 C   0  0  0  0  0  0  0  0  0  0  0  0
    2.2395    1.4392    0.0000 C   0  0  0  0  0  0  0  0  0  0  0  0
    1.1059    2.4215    0.0000 C   0  0  0  0  0  0  0  0  0  0  0  0
   -0.3789    2.6350    0.0000 C   0  0  0  0  0  0  0  0  0  0  0  0
   -1.7433    2.0119    0.0000 N   0  0  0  0  0  0  0  0  0  0  0  0
   -2.5543    0.7500    0.0000 C   0  0  0  0  0  0  0  0  0  0  0  0
   -3.9935    1.1726    0.0000 N   0  0  0  0  0  0  0  0  0  0  0  0
   -2.5543   -0.7500    0.0000 N   0  0  0  0  0  0  0  0  0  0  0  0
   -1.7433   -2.0119    0.0000 C   0  0  0  0  0  0  0  0  0  0  0  0
   -2.7256   -3.1455    0.0000 C   0  0  0  0  0  0  0  0  0  0  0  0
   -0.3789   -2.6350    0.0000 C   0  0  0  0  0  0  0  0  0  0  0  0
    1.1059   -2.4215    0.0000 C   0  0  0  0  0  0  0  0  0  0  0  0
    2.2395   -1.4392    0.0000 C   0  0  0  0  0  0  0  0  0  0  0  0
  1  2  1  0
  2  3  2  0
  3  4  1  0
  4  5  2  0
  5  6  1  0
  6  7  2  0
  7  8  1  0
  7  9  1  0
  9 10  1  0
 10 11  1  0
 10 12  2  0
 12 13  1  0
 13 14  2  0
 14  2  1  0
M  END
>  <Title>  (1005) 
idABMQgen8

$$$$

     RDKit          2D

 16 17  0  0  0  0  0  0  0  0999 V2000
    3.7500   -1.2990    0.0000 C   0  0  0  0  0  0  0  0  0  0  0  0
    3.0000    0.0000    0.0000 O   0  0  0  0  0  0  0  0  0  0  0  0
    1.5000    0.0000    0.0000 C   0  0  0  0  0  0  0  0  0  0  0  0
    0.7500   -1.2990    0.0000 C   0  0  0  0  0  0  0  0  0  0  0  0
   -0.7500   -1.2990    0.0000 C   0  0  0  0  0  0  0  0  0  0  0  0
   -1.5000    0.0000    0.0000 C   0  0  0  0  0  0  0  0  0  0  0  0
   -3.0000    0.0000    0.0000 C   0  0  0  0  0  0  0  0  0  0  0  0
   -3.7500    1.2990    0.0000 C   0  0  0  0  0  0  0  0  0  0  0  0
   -5.2500    1.2990    0.0000 C   0  0  0  0  0  0  0  0  0  0  0  0
   -6.0000    0.0000    0.0000 C   0  0  0  0  0  0  0  0  0  0  0  0
   -7.5000    0.0000    0.0000 C   0  0  0  0  0  0  0  0  0  0  0  0
   -5.2500   -1.2990    0.0000 C   0  0  0  0  0  0  0  0  0  0  0  0
   -6.0000   -2.5981    0.0000 O   0  0  0  0  0  0  0  0  0  0  0  0
   -3.7500   -1.2990    0.0000 N   0  0  0  0  0  0  0  0  0  0  0  0
   -0.7500    1.2990    0.0000 C   0  0  0  0  0  0  0  0  0  0  0  0
    0.7500    1.2990    0.0000 C   0  0  0  0  0  0  0  0  0  0  0  0
  1  2  1  0
  2  3  1  0
  3  4  2  0
  4  5  1  0
  5  6  2  0
  6  7  1  0
  7  8  2  0
  8  9  1  0
  9 10  2  0
 10 11  1  0
 10 12  1  0
 12 13  2  0
 12 14  1  0
  6 15  1  0
 15 16  2  0
 16  3  1  0
 14  7  1  0
M  END
>  <Title>  (1006) 
idABMRgen8

$$$$

     RDKit          2D

 39 44  0  0  0  0  0  0  0  0999 V2000
    5.9262   -3.3786    0.0000 O   0  0  0  0  0  0  0  0  0  0  0  0
    5.4627   -1.9520    0.0000 C   0  0  0  0  0  0  0  0  0  0  0  0
    3.9955   -1.6402    0.0000 N   0  0  0  0  0  0  0  0  0  0  0  0
    2.9918   -2.7549    0.0000 C   0  0  0  0  0  0  0  0  0  0  0  0
    3.3037   -4.2221    0.0000 N   0  0  0  0  0  0  0  0  0  0  0  0
    2.0046   -4.9721    0.0000 N   0  0  0  0  0  0  0  0  0  0  0  0
    0.8899   -3.9684    0.0000 N   0  0  0  0  0  0  0  0  0  0  0  0
    1.5000   -2.5981    0.0000 N   0  0  0  0  0  0  0  0  0  0  0  0
    0.7500   -1.2990    0.0000 C   0  0  0  0  0  0  0  0  0  0  0  0
    1.5000    0.0000    0.0000 C   0  0  0  0  0  0  0  0  0  0  0  0
    0.7500    1.2990    0.0000 C   0  0  0  0  0  0  0  0  0  0  0  0
   -0.7500    1.2990    0.0000 C   0  0  0  0  0  0  0  0  0  0  0  0
   -1.5000    0.0000    0.0000 C   0  0  0  0  0  0  0  0  0  0  0  0
   -0.7500   -1.2990    0.0000 C   0  0  0  0  0  0  0  0  0  0  0  0
    6.4664   -0.8373    0.0000 C   0  0  0  0  0  0  0  0  0  0  0  0
    7.9336   -1.1492    0.0000 C   0  0  0  0  0  0  0  0  0  0  0  0
    8.9373   -0.0345    0.0000 C   0  0  0  0  0  0  0  0  0  0  0  0
    8.4738    1.3921    0.0000 C   0  0  0  0  0  0  0  0  0  0  0  0
    9.4775    2.5068    0.0000 N   0  0  0  0  0  0  0  0  0  0  0  0
    9.1656    3.9741    0.0000 N   0  0  0  0  0  0  0  0  0  0  0  0
   10.4647    4.7241    0.0000 N   0  0  0  0  0  0  0  0  0  0  0  0
   11.5794    3.7204    0.0000 N   0  0  0  0  0  0  0  0  0  0  0  0
   10.9693    2.3501    0.0000 C   0  0  0  0  0  0  0  0  0  0  0  0
   11.7193    1.0510    0.0000 C   0  0  0  0  0  0  0  0  0  0  0  0
   10.9693   -0.2480    0.0000 C   0  0  0  0  0  0  0  0  0  0  0  0
   11.7193   -1.5471    0.0000 C   0  0  0  0  0  0  0  0  0  0  0  0
   13.2193   -1.5471    0.0000 C   0  0  0  0  0  0  0  0  0  0  0  0
   13.9693   -2.8461    0.0000 N   0  0  0  0  0  0  0  0  0  0  0  0
   13.2193   -4.1451    0.0000 C   0  0  0  0  0  0  0  0  0  0  0  0
   11.7193   -4.1451    0.0000 O   0  0  0  0  0  0  0  0  0  0  0  0
   13.9693   -5.4442    0.0000 N   0  0  0  0  0  0  0  0  0  0  0  0
   15.4610   -5.6010    0.0000 C   0  0  0  0  0  0  0  0  0  0  0  0
   15.7729   -7.0682    0.0000 C   0  0  0  0  0  0  0  0  0  0  0  0
   14.4739   -7.8182    0.0000 C   0  0  0  0  0  0  0  0  0  0  0  0
   13.3592   -6.8145    0.0000 C   0  0  0  0  0  0  0  0  0  0  0  0
   13.9693   -0.2480    0.0000 C   0  0  0  0  0  0  0  0  0  0  0  0
   13.2193    1.0510    0.0000 C   0  0  0  0  0  0  0  0  0  0  0  0
    7.0066    1.7040    0.0000 C   0  0  0  0  0  0  0  0  0  0  0  0
    6.0029    0.5893    0.0000 C   0  0  0  0  0  0  0  0  0  0  0  0
  1  2  2  0
  2  3  1  0
  3  4  1  0
  4  5  2  0
  5  6  1  0
  6  7  2  0
  7  8  1  0
  8  9  1  0
  9 10  2  0
 10 11  1  0
 11 12  2  0
 12 13  1  0
 13 14  2  0
  2 15  1  0
 15 16  2  0
 16 17  1  0
 17 18  2  0
 18 19  1  0
 19 20  1  0
 20 21  2  0
 21 22  1  0
 22 23  2  0
 23 24  1  0
 24 25  2  0
 25 26  1  0
 26 27  2  0
 27 28  1  0
 28 29  1  0
 29 30  2  0
 29 31  1  0
 31 32  1  0
 32 33  2  0
 33 34  1  0
 34 35  2  0
 27 36  1  0
 36 37  2  0
 18 38  1  0
 38 39  2  0
  8  4  1  0
 14  9  1  0
 39 15  1  0
 23 19  1  0
 37 24  1  0
 35 31  1  0
M  END
>  <Title>  (1007) 
idABMSgen8

$$$$

     RDKit          2D

 39 44  0  0  0  0  0  0  0  0999 V2000
    3.0000    0.0000    0.0000 C   0  0  0  0  0  0  0  0  0  0  0  0
    1.5000    0.0000    0.0000 C   0  0  0  0  0  0  0  0  0  0  0  0
    0.7500    1.2990    0.0000 C   0  0  0  0  0  0  0  0  0  0  0  0
   -0.7500    1.2990    0.0000 C   0  0  0  0  0  0  0  0  0  0  0  0
   -1.5000    0.0000    0.0000 C   0  0  0  0  0  0  0  0  0  0  0  0
   -3.0000    0.0000    0.0000 C   0  0  0  0  0  0  0  0  0  0  0  0
   -3.8817   -1.2135    0.0000 N   0  0  0  0  0  0  0  0  0  0  0  0
   -5.3083   -0.7500    0.0000 N   0  0  0  0  0  0  0  0  0  0  0  0
   -5.3083    0.7500    0.0000 N   0  0  0  0  0  0  0  0  0  0  0  0
   -3.8817    1.2135    0.0000 N   0  0  0  0  0  0  0  0  0  0  0  0
   -3.4182    2.6401    0.0000 C   0  0  0  0  0  0  0  0  0  0  0  0
   -4.2998    3.8536    0.0000 C   0  0  0  0  0  0  0  0  0  0  0  0
   -3.4182    5.0672    0.0000 C   0  0  0  0  0  0  0  0  0  0  0  0
   -1.9916    4.6036    0.0000 C   0  0  0  0  0  0  0  0  0  0  0  0
   -0.7780    5.4853    0.0000 C   0  0  0  0  0  0  0  0  0  0  0  0
    0.5923    4.8752    0.0000 O   0  0  0  0  0  0  0  0  0  0  0  0
   -0.9348    6.9771    0.0000 N   0  0  0  0  0  0  0  0  0  0  0  0
    0.2787    7.8588    0.0000 C   0  0  0  0  0  0  0  0  0  0  0  0
    1.7053    7.3952    0.0000 N   0  0  0  0  0  0  0  0  0  0  0  0
    2.5870    8.6088    0.0000 N   0  0  0  0  0  0  0  0  0  0  0  0
    1.7053    9.8223    0.0000 N   0  0  0  0  0  0  0  0  0  0  0  0
    0.2787    9.3588    0.0000 N   0  0  0  0  0  0  0  0  0  0  0  0
   -0.9348   10.2405    0.0000 N   0  0  0  0  0  0  0  0  0  0  0  0
   -2.3052    9.6303    0.0000 N   0  0  0  0  0  0  0  0  0  0  0  0
   -3.5187   10.5120    0.0000 N   0  0  0  0  0  0  0  0  0  0  0  0
   -3.3619   12.0038    0.0000 N   0  0  0  0  0  0  0  0  0  0  0  0
   -1.9916   12.6139    0.0000 N   0  0  0  0  0  0  0  0  0  0  0  0
   -0.7780   11.7322    0.0000 N   0  0  0  0  0  0  0  0  0  0  0  0
    0.5923   12.3423    0.0000 C   0  0  0  0  0  0  0  0  0  0  0  0
    0.7491   13.8341    0.0000 C   0  0  0  0  0  0  0  0  0  0  0  0
    2.1194   14.4442    0.0000 C   0  0  0  0  0  0  0  0  0  0  0  0
    3.3329   13.5625    0.0000 C   0  0  0  0  0  0  0  0  0  0  0  0
    3.1761   12.0708    0.0000 C   0  0  0  0  0  0  0  0  0  0  0  0
    1.8058   11.4607    0.0000 C   0  0  0  0  0  0  0  0  0  0  0  0
   -1.9916    3.1036    0.0000 C   0  0  0  0  0  0  0  0  0  0  0  0
   -0.7780    2.2220    0.0000 O   0  0  0  0  0  0  0  0  0  0  0  0
   -0.7500   -1.2990    0.0000 C   0  0  0  0  0  0  0  0  0  0  0  0
   -1.5000   -2.5981    0.0000 O   0  0  0  0  0  0  0  0  0  0  0  0
    0.7500   -1.2990    0.0000 N   0  0  0  0  0  0  0  0  0  0  0  0
  1  2  1  0
  2  3  2  0
  3  4  1  0
  4  5  2  0
  5  6  1  0
  6  7  2  0
  7  8  1  0
  8  9  2  0
  9 10  1  0
 10 11  1  0
 11 12  2  0
 12 13  1  0
 13 14  2  0
 14 15  1  0
 15 16  2  0
 15 17  1  0
 17 18  1  0
 18 19  2  0
 19 20  1  0
 20 21  2  0
 21 22  1  0
 22 23  1  0
 23 24  1  0
 24 25  2  0
 25 26  1  0
 26 27  2  0
 27 28  1  0
 28 29  1  0
 29 30  2  0
 30 31  1  0
 31 32  2  0
 32 33  1  0
 33 34  2  0
 14 35  1  0
 35 36  2  0
  5 37  1  0
 37 38  2  0
 37 39  1  0
 39  2  1  0
 10  6  1  0
 35 11  1  0
 22 18  1  0
 28 23  1  0
 34 29  1  0
M  END
>  <Title>  (1008) 
idABMTgen8

$$$$

     RDKit          2D

 26 29  0  0  0  0  0  0  0  0999 V2000
    3.2286   -0.0000    0.0000 C   0  0  0  0  0  0  0  0  0  0  0  0
    1.7286    0.0000    0.0000 C   0  0  0  0  0  0  0  0  0  0  0  0
    1.0777    1.3515    0.0000 C   0  0  0  0  0  0  0  0  0  0  0  0
   -0.3846    1.6852    0.0000 C   0  0  0  0  0  0  0  0  0  0  0  0
   -1.5574    0.7500    0.0000 C   0  0  0  0  0  0  0  0  0  0  0  0
   -1.5574   -0.7500    0.0000 C   0  0  0  0  0  0  0  0  0  0  0  0
   -2.9088   -1.4008    0.0000 C   0  0  0  0  0  0  0  0  0  0  0  0
   -3.1767   -2.8767    0.0000 C   0  0  0  0  0  0  0  0  0  0  0  0
   -4.6631   -3.0781    0.0000 C   0  0  0  0  0  0  0  0  0  0  0  0
   -5.3139   -1.7266    0.0000 C   0  0  0  0  0  0  0  0  0  0  0  0
   -6.7898   -1.4588    0.0000 C   0  0  0  0  0  0  0  0  0  0  0  0
   -7.2958   -0.0467    0.0000 N   0  0  0  0  0  0  0  0  0  0  0  0
   -8.7717    0.2211    0.0000 N   0  0  0  0  0  0  0  0  0  0  0  0
   -9.7416   -0.9231    0.0000 N   0  0  0  0  0  0  0  0  0  0  0  0
   -9.2356   -2.3352    0.0000 N   0  0  0  0  0  0  0  0  0  0  0  0
   -7.7597   -2.6030    0.0000 N   0  0  0  0  0  0  0  0  0  0  0  0
   -7.2537   -4.0151    0.0000 C   0  0  0  0  0  0  0  0  0  0  0  0
   -8.2236   -5.1593    0.0000 C   0  0  0  0  0  0  0  0  0  0  0  0
   -7.7176   -6.5714    0.0000 C   0  0  0  0  0  0  0  0  0  0  0  0
   -6.2417   -6.8393    0.0000 C   0  0  0  0  0  0  0  0  0  0  0  0
   -5.2718   -5.6950    0.0000 C   0  0  0  0  0  0  0  0  0  0  0  0
   -5.7778   -4.2829    0.0000 C   0  0  0  0  0  0  0  0  0  0  0  0
   -4.2297   -0.6900    0.0000 C   0  0  0  0  0  0  0  0  0  0  0  0
   -4.4311    0.7964    0.0000 O   0  0  0  0  0  0  0  0  0  0  0  0
   -0.3846   -1.6852    0.0000 C   0  0  0  0  0  0  0  0  0  0  0  0
    1.0777   -1.3515    0.0000 C   0  0  0  0  0  0  0  0  0  0  0  0
  1  2  1  0
  2  3  2  0
  3  4  1  0
  4  5  2  0
  5  6  2  0
  6  7  1  0
  7  8  2  0
  8  9  1  0
  9 10  2  0
 10 11  1  0
 11 12  1  0
 12 13  2  0
 13 14  1  0
 14 15  2  0
 15 16  1  0
 16 17  1  0
 17 18  2  0
 18 19  1  0
 19 20  2  0
 20 21  1  0
 21 22  2  0
 10 23  1  0
 23 24  2  0
  6 25  1  0
 25 26  1  0
 26  2  1  0
 23  7  1  0
 16 11  1  0
 22 17  1  0
M  END
>  <Title>  (1009) 
idABMUgen8

$$$$

     RDKit          2D

 16 17  0  0  0  0  0  0  0  0999 V2000
    4.2098   -1.2990    0.0000 O   0  0  0  0  0  0  0  0  0  0  0  0
    3.4598   -0.0000    0.0000 C   0  0  0  0  0  0  0  0  0  0  0  0
    1.9598    0.0000    0.0000 C   0  0  0  0  0  0  0  0  0  0  0  0
    1.3858   -1.3858    0.0000 C   0  0  0  0  0  0  0  0  0  0  0  0
   -0.0000   -1.9598    0.0000 C   0  0  0  0  0  0  0  0  0  0  0  0
   -1.3858   -1.3858    0.0000 C   0  0  0  0  0  0  0  0  0  0  0  0
   -1.9598    0.0000    0.0000 C   0  0  0  0  0  0  0  0  0  0  0  0
   -1.3858    1.3858    0.0000 C   0  0  0  0  0  0  0  0  0  0  0  0
    0.0000    1.9598    0.0000 C   0  0  0  0  0  0  0  0  0  0  0  0
    1.3858    1.3858    0.0000 C   0  0  0  0  0  0  0  0  0  0  0  0
    2.4465    2.4465    0.0000 C   0  0  0  0  0  0  0  0  0  0  0  0
    3.8954    2.0583    0.0000 C   0  0  0  0  0  0  0  0  0  0  0  0
    4.9560    3.1189    0.0000 C   0  0  0  0  0  0  0  0  0  0  0  0
    4.5678    4.5678    0.0000 C   0  0  0  0  0  0  0  0  0  0  0  0
    3.1189    4.9560    0.0000 C   0  0  0  0  0  0  0  0  0  0  0  0
    2.0583    3.8954    0.0000 C   0  0  0  0  0  0  0  0  0  0  0  0
  1  2  1  0
  2  3  1  0
  3  4  2  0
  4  5  1  0
  5  6  2  0
  6  7  1  0
  7  8  2  0
  8  9  1  0
  9 10  2  0
 10 11  1  0
 11 12  2  0
 12 13  1  0
 13 14  2  0
 14 15  1  0
 15 16  2  0
 10  3  1  0
 16 11  1  0
M  END
>  <Title>  (1010) 
idABMVgen8

$$$$

     RDKit          2D

 23 23  0  0  0  0  0  0  0  0999 V2000
    6.2943    0.0000    0.0000 C   0  0  0  0  0  0  0  0  0  0  0  0
    4.7943    0.0000    0.0000 C   0  0  0  0  0  0  0  0  0  0  0  0
    4.5597   -1.4815    0.0000 C   0  0  0  0  0  0  0  0  0  0  0  0
    3.8787   -2.8180    0.0000 C   0  0  0  0  0  0  0  0  0  0  0  0
    2.8180   -3.8787    0.0000 C   0  0  0  0  0  0  0  0  0  0  0  0
    1.4815   -4.5597    0.0000 C   0  0  0  0  0  0  0  0  0  0  0  0
   -0.0000   -4.7943    0.0000 C   0  0  0  0  0  0  0  0  0  0  0  0
   -1.4815   -4.5597    0.0000 C   0  0  0  0  0  0  0  0  0  0  0  0
   -2.8180   -3.8787    0.0000 C   0  0  0  0  0  0  0  0  0  0  0  0
   -3.8787   -2.8180    0.0000 C   0  0  0  0  0  0  0  0  0  0  0  0
   -4.5597   -1.4815    0.0000 C   0  0  0  0  0  0  0  0  0  0  0  0
   -4.7943    0.0000    0.0000 C   0  0  0  0  0  0  0  0  0  0  0  0
   -4.5597    1.4815    0.0000 C   0  0  0  0  0  0  0  0  0  0  0  0
   -3.8787    2.8180    0.0000 C   0  0  0  0  0  0  0  0  0  0  0  0
   -2.8180    3.8787    0.0000 C   0  0  0  0  0  0  0  0  0  0  0  0
   -1.4815    4.5597    0.0000 C   0  0  0  0  0  0  0  0  0  0  0  0
    0.0000    4.7943    0.0000 C   0  0  0  0  0  0  0  0  0  0  0  0
    1.4815    4.5597    0.0000 C   0  0  0  0  0  0  0  0  0  0  0  0
    2.8180    3.8787    0.0000 C   0  0  0  0  0  0  0  0  0  0  0  0
    3.6997    5.0922    0.0000 C   0  0  0  0  0  0  0  0  0  0  0  0
    3.8787    2.8180    0.0000 C   0  0  0  0  0  0  0  0  0  0  0  0
    5.0922    3.6997    0.0000 O   0  0  0  0  0  0  0  0  0  0  0  0
    4.5597    1.4815    0.0000 N   0  0  0  0  0  0  0  0  0  0  0  0
  1  2  1  0
  2  3  2  0
  3  4  1  0
  4  5  2  0
  5  6  1  0
  6  7  2  0
  7  8  1  0
  8  9  2  0
  9 10  1  0
 10 11  2  0
 11 12  1  0
 12 13  2  0
 13 14  1  0
 14 15  2  0
 15 16  1  0
 16 17  2  0
 17 18  1  0
 18 19  2  0
 19 20  1  0
 19 21  1  0
 21 22  2  0
 21 23  1  0
 23  2  1  0
M  END
>  <Title>  (1011) 
idABMWgen8

$$$$

     RDKit          2D

 44 50  0  0  0  0  0  0  0  0999 V2000
    3.0000    0.0000    0.0000 C   0  0  0  0  0  0  0  0  0  0  0  0
    1.5000    0.0000    0.0000 C   0  0  0  0  0  0  0  0  0  0  0  0
    0.7500   -1.2990    0.0000 C   0  0  0  0  0  0  0  0  0  0  0  0
   -0.7500   -1.2990    0.0000 C   0  0  0  0  0  0  0  0  0  0  0  0
   -1.5000    0.0000    0.0000 C   0  0  0  0  0  0  0  0  0  0  0  0
   -3.0000    0.0000    0.0000 C   0  0  0  0  0  0  0  0  0  0  0  0
   -3.8817   -1.2135    0.0000 N   0  0  0  0  0  0  0  0  0  0  0  0
   -5.3083   -0.7500    0.0000 N   0  0  0  0  0  0  0  0  0  0  0  0
   -5.3083    0.7500    0.0000 N   0  0  0  0  0  0  0  0  0  0  0  0
   -3.8817    1.2135    0.0000 N   0  0  0  0  0  0  0  0  0  0  0  0
   -3.4182    2.6401    0.0000 C   0  0  0  0  0  0  0  0  0  0  0  0
   -1.9509    2.9520    0.0000 C   0  0  0  0  0  0  0  0  0  0  0  0
   -1.4874    4.3786    0.0000 C   0  0  0  0  0  0  0  0  0  0  0  0
   -2.4911    5.4933    0.0000 C   0  0  0  0  0  0  0  0  0  0  0  0
   -3.9583    5.1814    0.0000 C   0  0  0  0  0  0  0  0  0  0  0  0
   -4.4218    3.7548    0.0000 C   0  0  0  0  0  0  0  0  0  0  0  0
   -5.8891    3.4430    0.0000 C   0  0  0  0  0  0  0  0  0  0  0  0
   -6.8928    4.5577    0.0000 C   0  0  0  0  0  0  0  0  0  0  0  0
   -8.3600    4.2458    0.0000 C   0  0  0  0  0  0  0  0  0  0  0  0
   -8.8235    2.8192    0.0000 C   0  0  0  0  0  0  0  0  0  0  0  0
  -10.2907    2.5074    0.0000 C   0  0  0  0  0  0  0  0  0  0  0  0
  -10.9008    1.1370    0.0000 C   0  0  0  0  0  0  0  0  0  0  0  0
  -12.3926    1.2938    0.0000 N   0  0  0  0  0  0  0  0  0  0  0  0
  -12.7045    2.7611    0.0000 N   0  0  0  0  0  0  0  0  0  0  0  0
  -11.4055    3.5111    0.0000 N   0  0  0  0  0  0  0  0  0  0  0  0
  -11.2487    5.0028    0.0000 C   0  0  0  0  0  0  0  0  0  0  0  0
   -9.9496    5.7528    0.0000 N   0  0  0  0  0  0  0  0  0  0  0  0
  -10.2615    7.2201    0.0000 N   0  0  0  0  0  0  0  0  0  0  0  0
  -11.7533    7.3769    0.0000 N   0  0  0  0  0  0  0  0  0  0  0  0
  -12.3634    6.0065    0.0000 N   0  0  0  0  0  0  0  0  0  0  0  0
  -13.8306    5.6947    0.0000 C   0  0  0  0  0  0  0  0  0  0  0  0
  -14.2941    4.2681    0.0000 C   0  0  0  0  0  0  0  0  0  0  0  0
  -15.7613    3.9562    0.0000 C   0  0  0  0  0  0  0  0  0  0  0  0
  -16.7650    5.0709    0.0000 C   0  0  0  0  0  0  0  0  0  0  0  0
  -18.2323    4.7591    0.0000 C   0  0  0  0  0  0  0  0  0  0  0  0
  -19.2360    5.8738    0.0000 O   0  0  0  0  0  0  0  0  0  0  0  0
  -18.6958    3.3325    0.0000 N   0  0  0  0  0  0  0  0  0  0  0  0
  -20.1630    3.0206    0.0000 O   0  0  0  0  0  0  0  0  0  0  0  0
  -16.3015    6.4975    0.0000 C   0  0  0  0  0  0  0  0  0  0  0  0
  -14.8343    6.8094    0.0000 C   0  0  0  0  0  0  0  0  0  0  0  0
   -7.8198    1.7045    0.0000 C   0  0  0  0  0  0  0  0  0  0  0  0
   -6.3526    2.0164    0.0000 C   0  0  0  0  0  0  0  0  0  0  0  0
   -0.7500    1.2990    0.0000 C   0  0  0  0  0  0  0  0  0  0  0  0
    0.7500    1.2990    0.0000 C   0  0  0  0  0  0  0  0  0  0  0  0
  1  2  1  0
  2  3  2  0
  3  4  1  0
  4  5  2  0
  5  6  1  0
  6  7  2  0
  7  8  1  0
  8  9  2  0
  9 10  1  0
 10 11  1  0
 11 12  1  0
 12 13  1  0
 13 14  1  0
 14 15  1  0
 15 16  1  0
 16 17  1  0
 17 18  2  0
 18 19  1  0
 19 20  2  0
 20 21  1  0
 21 22  2  0
 22 23  1  0
 23 24  2  0
 24 25  1  0
 25 26  1  0
 26 27  2  0
 27 28  1  0
 28 29  2  0
 29 30  1  0
 30 31  1  0
 31 32  2  0
 32 33  1  0
 33 34  2  0
 34 35  1  0
 35 36  2  0
 35 37  1  0
 37 38  1  0
 34 39  1  0
 39 40  1  0
 20 41  1  0
 41 42  2  0
  5 43  1  0
 43 44  2  0
 44  2  1  0
 10  6  1  0
 16 11  1  0
 42 17  1  0
 25 21  1  0
 30 26  1  0
 40 31  1  0
M  END
>  <Title>  (1012) 
idABMXgen8

$$$$

     RDKit          2D

 16 17  0  0  0  0  0  0  0  0999 V2000
    3.7500   -1.2990    0.0000 O   0  0  0  0  0  0  0  0  0  0  0  0
    3.0000    0.0000    0.0000 C   0  0  0  0  0  0  0  0  0  0  0  0
    1.5000    0.0000    0.0000 C   0  0  0  0  0  0  0  0  0  0  0  0
    0.7500   -1.2990    0.0000 C   0  0  0  0  0  0  0  0  0  0  0  0
   -0.7500   -1.2990    0.0000 C   0  0  0  0  0  0  0  0  0  0  0  0
   -1.5000    0.0000    0.0000 C   0  0  0  0  0  0  0  0  0  0  0  0
   -0.7500    1.2990    0.0000 C   0  0  0  0  0  0  0  0  0  0  0  0
    0.7500    1.2990    0.0000 C   0  0  0  0  0  0  0  0  0  0  0  0
    1.5000    2.5981    0.0000 N   0  0  0  0  0  0  0  0  0  0  0  0
    0.7500    3.8971    0.0000 C   0  0  0  0  0  0  0  0  0  0  0  0
    1.5000    5.1962    0.0000 C   0  0  0  0  0  0  0  0  0  0  0  0
    3.0000    5.1962    0.0000 C   0  0  0  0  0  0  0  0  0  0  0  0
    3.7500    6.4952    0.0000 C   0  0  0  0  0  0  0  0  0  0  0  0
    3.0000    7.7942    0.0000 C   0  0  0  0  0  0  0  0  0  0  0  0
    1.5000    7.7942    0.0000 C   0  0  0  0  0  0  0  0  0  0  0  0
    0.7500    6.4952    0.0000 C   0  0  0  0  0  0  0  0  0  0  0  0
  1  2  1  0
  2  3  1  0
  3  4  2  0
  4  5  1  0
  5  6  2  0
  6  7  1  0
  7  8  2  0
  8  9  1  0
  9 10  1  0
 10 11  1  0
 11 12  2  0
 12 13  1  0
 13 14  2  0
 14 15  1  0
 15 16  2  0
  8  3  1  0
 16 11  1  0
M  END
>  <Title>  (1013) 
idABMYgen8

$$$$

     RDKit          2D

 38 42  0  0  0  0  0  0  0  0999 V2000
    3.0000    0.0000    0.0000 C   0  0  0  0  0  0  0  0  0  0  0  0
    1.5000    0.0000    0.0000 C   0  0  0  0  0  0  0  0  0  0  0  0
    0.7500    1.2990    0.0000 C   0  0  0  0  0  0  0  0  0  0  0  0
   -0.7500    1.2990    0.0000 C   0  0  0  0  0  0  0  0  0  0  0  0
   -1.5000    0.0000    0.0000 C   0  0  0  0  0  0  0  0  0  0  0  0
   -3.0000    0.0000    0.0000 C   0  0  0  0  0  0  0  0  0  0  0  0
   -3.8817   -1.2135    0.0000 N   0  0  0  0  0  0  0  0  0  0  0  0
   -5.3083   -0.7500    0.0000 N   0  0  0  0  0  0  0  0  0  0  0  0
   -5.3083    0.7500    0.0000 N   0  0  0  0  0  0  0  0  0  0  0  0
   -3.8817    1.2135    0.0000 N   0  0  0  0  0  0  0  0  0  0  0  0
   -3.4182    2.6401    0.0000 C   0  0  0  0  0  0  0  0  0  0  0  0
   -4.2998    3.8536    0.0000 C   0  0  0  0  0  0  0  0  0  0  0  0
   -3.4182    5.0672    0.0000 C   0  0  0  0  0  0  0  0  0  0  0  0
   -1.9916    4.6036    0.0000 C   0  0  0  0  0  0  0  0  0  0  0  0
   -0.7780    5.4853    0.0000 C   0  0  0  0  0  0  0  0  0  0  0  0
    0.5923    4.8752    0.0000 O   0  0  0  0  0  0  0  0  0  0  0  0
   -0.9348    6.9771    0.0000 N   0  0  0  0  0  0  0  0  0  0  0  0
    0.2787    7.8588    0.0000 C   0  0  0  0  0  0  0  0  0  0  0  0
    1.7053    7.3952    0.0000 N   0  0  0  0  0  0  0  0  0  0  0  0
    2.5870    8.6088    0.0000 N   0  0  0  0  0  0  0  0  0  0  0  0
    1.7053    9.8223    0.0000 N   0  0  0  0  0  0  0  0  0  0  0  0
    0.2787    9.3588    0.0000 N   0  0  0  0  0  0  0  0  0  0  0  0
   -0.9348   10.2405    0.0000 C   0  0  0  0  0  0  0  0  0  0  0  0
   -2.3052    9.6303    0.0000 C   0  0  0  0  0  0  0  0  0  0  0  0
   -3.5187   10.5120    0.0000 C   0  0  0  0  0  0  0  0  0  0  0  0
   -3.3619   12.0038    0.0000 C   0  0  0  0  0  0  0  0  0  0  0  0
   -4.5754   12.8855    0.0000 C   0  0  0  0  0  0  0  0  0  0  0  0
   -5.9457   12.2754    0.0000 O   0  0  0  0  0  0  0  0  0  0  0  0
   -4.4186   14.3773    0.0000 N   0  0  0  0  0  0  0  0  0  0  0  0
   -5.6321   15.2589    0.0000 O   0  0  0  0  0  0  0  0  0  0  0  0
   -1.9916   12.6139    0.0000 N   0  0  0  0  0  0  0  0  0  0  0  0
   -0.7780   11.7322    0.0000 C   0  0  0  0  0  0  0  0  0  0  0  0
    0.5923   12.3423    0.0000 O   0  0  0  0  0  0  0  0  0  0  0  0
   -1.9916    3.1036    0.0000 C   0  0  0  0  0  0  0  0  0  0  0  0
   -0.7780    2.2220    0.0000 O   0  0  0  0  0  0  0  0  0  0  0  0
   -0.7500   -1.2990    0.0000 C   0  0  0  0  0  0  0  0  0  0  0  0
   -1.5000   -2.5981    0.0000 O   0  0  0  0  0  0  0  0  0  0  0  0
    0.7500   -1.2990    0.0000 N   0  0  0  0  0  0  0  0  0  0  0  0
  1  2  1  0
  2  3  2  0
  3  4  1  0
  4  5  2  0
  5  6  1  0
  6  7  2  0
  7  8  1  0
  8  9  2  0
  9 10  1  0
 10 11  1  0
 11 12  2  0
 12 13  1  0
 13 14  2  0
 14 15  1  0
 15 16  2  0
 15 17  1  0
 17 18  1  0
 18 19  2  0
 19 20  1  0
 20 21  2  0
 21 22  1  0
 22 23  1  0
 23 24  2  0
 24 25  1  0
 25 26  2  0
 26 27  1  0
 27 28  2  0
 27 29  1  0
 29 30  1  0
 26 31  1  0
 31 32  1  0
 32 33  2  0
 14 34  1  0
 34 35  2  0
  5 36  1  0
 36 37  2  0
 36 38  1  0
 38  2  1  0
 10  6  1  0
 34 11  1  0
 22 18  1  0
 32 23  1  0
M  END
>  <Title>  (1014) 
idABMZgen8

$$$$

     RDKit          2D

 18 19  0  0  0  0  0  0  0  0999 V2000
    3.0000   -5.1962    0.0000 O   0  0  0  0  0  0  0  0  0  0  0  0
    1.5000   -5.1962    0.0000 C   0  0  0  0  0  0  0  0  0  0  0  0
    0.7500   -3.8971    0.0000 N   0  0  0  0  0  0  0  0  0  0  0  0
    1.5000   -2.5981    0.0000 C   0  0  0  0  0  0  0  0  0  0  0  0
    3.0000   -2.5981    0.0000 O   0  0  0  0  0  0  0  0  0  0  0  0
    0.7500   -1.2990    0.0000 C   0  0  0  0  0  0  0  0  0  0  0  0
    1.5000    0.0000    0.0000 C   0  0  0  0  0  0  0  0  0  0  0  0
    0.7500    1.2990    0.0000 C   0  0  0  0  0  0  0  0  0  0  0  0
   -0.7500    1.2990    0.0000 C   0  0  0  0  0  0  0  0  0  0  0  0
   -1.5000    0.0000    0.0000 C   0  0  0  0  0  0  0  0  0  0  0  0
   -0.7500   -1.2990    0.0000 C   0  0  0  0  0  0  0  0  0  0  0  0
    0.7500   -6.4952    0.0000 N   0  0  0  0  0  0  0  0  0  0  0  0
    1.5000   -7.7942    0.0000 C   0  0  0  0  0  0  0  0  0  0  0  0
    0.7500   -9.0933    0.0000 C   0  0  0  0  0  0  0  0  0  0  0  0
    1.5000  -10.3923    0.0000 C   0  0  0  0  0  0  0  0  0  0  0  0
    3.0000  -10.3923    0.0000 C   0  0  0  0  0  0  0  0  0  0  0  0
    3.7500   -9.0933    0.0000 C   0  0  0  0  0  0  0  0  0  0  0  0
    3.0000   -7.7942    0.0000 C   0  0  0  0  0  0  0  0  0  0  0  0
  1  2  2  0
  2  3  1  0
  3  4  1  0
  4  5  2  0
  4  6  1  0
  6  7  2  0
  7  8  1  0
  8  9  2  0
  9 10  1  0
 10 11  2  0
  2 12  1  0
 12 13  1  0
 13 14  2  0
 14 15  1  0
 15 16  2  0
 16 17  1  0
 17 18  2  0
 11  6  1  0
 18 13  1  0
M  END
>  <Title>  (1015) 
idABNAgen8

$$$$

     RDKit          2D

 38 43  0  0  0  0  0  0  0  0999 V2000
    4.6740   -4.8322    0.0000 C   0  0  0  0  0  0  0  0  0  0  0  0
    3.3037   -4.2221    0.0000 C   0  0  0  0  0  0  0  0  0  0  0  0
    2.0046   -4.9721    0.0000 C   0  0  0  0  0  0  0  0  0  0  0  0
    0.8899   -3.9684    0.0000 C   0  0  0  0  0  0  0  0  0  0  0  0
    1.5000   -2.5981    0.0000 C   0  0  0  0  0  0  0  0  0  0  0  0
    0.7500   -1.2990    0.0000 C   0  0  0  0  0  0  0  0  0  0  0  0
    1.5000    0.0000    0.0000 C   0  0  0  0  0  0  0  0  0  0  0  0
    0.7500    1.2990    0.0000 C   0  0  0  0  0  0  0  0  0  0  0  0
    1.5000    2.5981    0.0000 C   0  0  0  0  0  0  0  0  0  0  0  0
    0.8899    3.9684    0.0000 N   0  0  0  0  0  0  0  0  0  0  0  0
    2.0046    4.9721    0.0000 N   0  0  0  0  0  0  0  0  0  0  0  0
    3.3037    4.2221    0.0000 N   0  0  0  0  0  0  0  0  0  0  0  0
    2.9918    2.7549    0.0000 N   0  0  0  0  0  0  0  0  0  0  0  0
    3.9955    1.6402    0.0000 C   0  0  0  0  0  0  0  0  0  0  0  0
    3.5320    0.2136    0.0000 C   0  0  0  0  0  0  0  0  0  0  0  0
    4.5356   -0.9012    0.0000 C   0  0  0  0  0  0  0  0  0  0  0  0
    6.0029   -0.5893    0.0000 C   0  0  0  0  0  0  0  0  0  0  0  0
    6.4664    0.8373    0.0000 C   0  0  0  0  0  0  0  0  0  0  0  0
    5.4627    1.9520    0.0000 C   0  0  0  0  0  0  0  0  0  0  0  0
   -0.7500    1.2990    0.0000 C   0  0  0  0  0  0  0  0  0  0  0  0
   -1.5000    0.0000    0.0000 C   0  0  0  0  0  0  0  0  0  0  0  0
   -0.7500   -1.2990    0.0000 C   0  0  0  0  0  0  0  0  0  0  0  0
   -1.5000   -2.5981    0.0000 N   0  0  0  0  0  0  0  0  0  0  0  0
   -0.7500   -3.8971    0.0000 N   0  0  0  0  0  0  0  0  0  0  0  0
   -1.5000   -5.1962    0.0000 N   0  0  0  0  0  0  0  0  0  0  0  0
   -3.0000   -5.1962    0.0000 N   0  0  0  0  0  0  0  0  0  0  0  0
   -3.7500   -3.8971    0.0000 C   0  0  0  0  0  0  0  0  0  0  0  0
   -3.0000   -2.5981    0.0000 C   0  0  0  0  0  0  0  0  0  0  0  0
   -3.7500   -1.2990    0.0000 C   0  0  0  0  0  0  0  0  0  0  0  0
   -3.0000    0.0000    0.0000 C   0  0  0  0  0  0  0  0  0  0  0  0
   -3.7500    1.2990    0.0000 C   0  0  0  0  0  0  0  0  0  0  0  0
   -5.2500    1.2990    0.0000 C   0  0  0  0  0  0  0  0  0  0  0  0
   -6.0000    2.5981    0.0000 C   0  0  0  0  0  0  0  0  0  0  0  0
   -6.0000    0.0000    0.0000 C   0  0  0  0  0  0  0  0  0  0  0  0
   -7.5000    0.0000    0.0000 O   0  0  0  0  0  0  0  0  0  0  0  0
   -5.2500   -1.2990    0.0000 N   0  0  0  0  0  0  0  0  0  0  0  0
    2.9918   -2.7549    0.0000 C   0  0  0  0  0  0  0  0  0  0  0  0
    3.9955   -1.6402    0.0000 O   0  0  0  0  0  0  0  0  0  0  0  0
  1  2  1  0
  2  3  2  0
  3  4  1  0
  4  5  2  0
  5  6  1  0
  6  7  2  0
  7  8  1  0
  8  9  1  0
  9 10  2  0
 10 11  1  0
 11 12  2  0
 12 13  1  0
 13 14  1  0
 14 15  2  0
 15 16  1  0
 16 17  2  0
 17 18  1  0
 18 19  2  0
  8 20  2  0
 20 21  1  0
 21 22  2  0
 22 23  1  0
 23 24  1  0
 24 25  2  0
 25 26  1  0
 26 27  1  0
 27 28  1  0
 28 29  1  0
 29 30  2  0
 30 31  1  0
 31 32  2  0
 32 33  1  0
 32 34  1  0
 34 35  2  0
 34 36  1  0
  5 37  1  0
 37 38  2  0
 37  2  1  0
 22  6  1  0
 28 23  1  0
 36 29  1  0
 13  9  1  0
 19 14  1  0
M  END
>  <Title>  (1016) 
idABNBgen8

$$$$

     RDKit          2D

 21 21  0  0  0  0  0  0  0  0999 V2000
    6.2943    0.0000    0.0000 C   0  0  0  0  0  0  0  0  0  0  0  0
    4.7943    0.0000    0.0000 C   0  0  0  0  0  0  0  0  0  0  0  0
    4.5597   -1.4815    0.0000 C   0  0  0  0  0  0  0  0  0  0  0  0
    3.8787   -2.8180    0.0000 C   0  0  0  0  0  0  0  0  0  0  0  0
    2.8180   -3.8787    0.0000 C   0  0  0  0  0  0  0  0  0  0  0  0
    1.4815   -4.5597    0.0000 C   0  0  0  0  0  0  0  0  0  0  0  0
   -0.0000   -4.7943    0.0000 C   0  0  0  0  0  0  0  0  0  0  0  0
   -1.4815   -4.5597    0.0000 C   0  0  0  0  0  0  0  0  0  0  0  0
   -2.8180   -3.8787    0.0000 C   0  0  0  0  0  0  0  0  0  0  0  0
   -3.8787   -2.8180    0.0000 C   0  0  0  0  0  0  0  0  0  0  0  0
   -4.5597   -1.4815    0.0000 C   0  0  0  0  0  0  0  0  0  0  0  0
   -4.7943    0.0000    0.0000 C   0  0  0  0  0  0  0  0  0  0  0  0
   -4.5597    1.4815    0.0000 C   0  0  0  0  0  0  0  0  0  0  0  0
   -3.8787    2.8180    0.0000 C   0  0  0  0  0  0  0  0  0  0  0  0
   -2.8180    3.8787    0.0000 C   0  0  0  0  0  0  0  0  0  0  0  0
   -1.4815    4.5597    0.0000 C   0  0  0  0  0  0  0  0  0  0  0  0
    0.0000    4.7943    0.0000 C   0  0  0  0  0  0  0  0  0  0  0  0
    1.4815    4.5597    0.0000 C   0  0  0  0  0  0  0  0  0  0  0  0
    2.8180    3.8787    0.0000 C   0  0  0  0  0  0  0  0  0  0  0  0
    3.8787    2.8180    0.0000 C   0  0  0  0  0  0  0  0  0  0  0  0
    4.5597    1.4815    0.0000 C   0  0  0  0  0  0  0  0  0  0  0  0
  1  2  1  0
  2  3  2  0
  3  4  1  0
  4  5  2  0
  5  6  2  0
  6  7  2  0
  7  8  1  0
  8  9  2  0
  9 10  1  0
 10 11  2  0
 11 12  1  0
 12 13  2  0
 13 14  1  0
 14 15  2  0
 15 16  1  0
 16 17  2  0
 17 18  1  0
 18 19  2  0
 19 20  1  0
 20 21  2  0
 21  2  1  0
M  END
>  <Title>  (1017) 
idABNCgen8

$$$$

     RDKit          2D

 41 47  0  0  0  0  0  0  0  0999 V2000
    3.0000    0.0000    0.0000 C   0  0  0  0  0  0  0  0  0  0  0  0
    1.5000    0.0000    0.0000 C   0  0  0  0  0  0  0  0  0  0  0  0
    0.7500    1.2990    0.0000 C   0  0  0  0  0  0  0  0  0  0  0  0
   -0.7500    1.2990    0.0000 C   0  0  0  0  0  0  0  0  0  0  0  0
   -1.5000    0.0000    0.0000 C   0  0  0  0  0  0  0  0  0  0  0  0
   -3.0000    0.0000    0.0000 C   0  0  0  0  0  0  0  0  0  0  0  0
   -3.8817   -1.2135    0.0000 N   0  0  0  0  0  0  0  0  0  0  0  0
   -5.3083   -0.7500    0.0000 N   0  0  0  0  0  0  0  0  0  0  0  0
   -5.3083    0.7500    0.0000 N   0  0  0  0  0  0  0  0  0  0  0  0
   -3.8817    1.2135    0.0000 N   0  0  0  0  0  0  0  0  0  0  0  0
   -3.4182    2.6401    0.0000 C   0  0  0  0  0  0  0  0  0  0  0  0
   -1.9509    2.9520    0.0000 C   0  0  0  0  0  0  0  0  0  0  0  0
   -1.4874    4.3786    0.0000 C   0  0  0  0  0  0  0  0  0  0  0  0
   -2.4911    5.4933    0.0000 C   0  0  0  0  0  0  0  0  0  0  0  0
   -2.0276    6.9199    0.0000 C   0  0  0  0  0  0  0  0  0  0  0  0
   -2.9093    8.1334    0.0000 N   0  0  0  0  0  0  0  0  0  0  0  0
   -2.0276    9.3469    0.0000 N   0  0  0  0  0  0  0  0  0  0  0  0
   -0.6010    8.8834    0.0000 N   0  0  0  0  0  0  0  0  0  0  0  0
   -0.6010    7.3834    0.0000 N   0  0  0  0  0  0  0  0  0  0  0  0
    0.6125    6.5017    0.0000 C   0  0  0  0  0  0  0  0  0  0  0  0
    0.4557    5.0099    0.0000 C   0  0  0  0  0  0  0  0  0  0  0  0
    1.6693    4.1283    0.0000 C   0  0  0  0  0  0  0  0  0  0  0  0
    3.0396    4.7384    0.0000 C   0  0  0  0  0  0  0  0  0  0  0  0
    3.1964    6.2301    0.0000 C   0  0  0  0  0  0  0  0  0  0  0  0
    1.9829    7.1118    0.0000 C   0  0  0  0  0  0  0  0  0  0  0  0
    2.1396    8.6036    0.0000 C   0  0  0  0  0  0  0  0  0  0  0  0
    1.0249    9.6073    0.0000 N   0  0  0  0  0  0  0  0  0  0  0  0
    1.6350   10.9776    0.0000 N   0  0  0  0  0  0  0  0  0  0  0  0
    3.1268   10.8208    0.0000 N   0  0  0  0  0  0  0  0  0  0  0  0
    3.4387    9.3536    0.0000 N   0  0  0  0  0  0  0  0  0  0  0  0
    4.8090    8.7435    0.0000 C   0  0  0  0  0  0  0  0  0  0  0  0
    4.9658    7.2517    0.0000 C   0  0  0  0  0  0  0  0  0  0  0  0
    6.3361    6.6416    0.0000 C   0  0  0  0  0  0  0  0  0  0  0  0
    7.5496    7.5233    0.0000 C   0  0  0  0  0  0  0  0  0  0  0  0
    7.3928    9.0151    0.0000 C   0  0  0  0  0  0  0  0  0  0  0  0
    6.0225    9.6252    0.0000 C   0  0  0  0  0  0  0  0  0  0  0  0
   -3.9583    5.1814    0.0000 C   0  0  0  0  0  0  0  0  0  0  0  0
   -4.4218    3.7548    0.0000 C   0  0  0  0  0  0  0  0  0  0  0  0
   -0.7500   -1.2990    0.0000 C   0  0  0  0  0  0  0  0  0  0  0  0
   -1.5000   -2.5981    0.0000 O   0  0  0  0  0  0  0  0  0  0  0  0
    0.7500   -1.2990    0.0000 N   0  0  0  0  0  0  0  0  0  0  0  0
  1  2  1  0
  2  3  2  0
  3  4  1  0
  4  5  2  0
  5  6  1  0
  6  7  2  0
  7  8  1  0
  8  9  2  0
  9 10  1  0
 10 11  1  0
 11 12  2  0
 12 13  1  0
 13 14  2  0
 14 15  1  0
 15 16  2  0
 16 17  1  0
 17 18  2  0
 18 19  1  0
 19 20  1  0
 20 21  2  0
 21 22  1  0
 22 23  2  0
 23 24  1  0
 24 25  2  0
 25 26  1  0
 26 27  2  0
 27 28  1  0
 28 29  2  0
 29 30  1  0
 30 31  1  0
 31 32  2  0
 32 33  1  0
 33 34  2  0
 34 35  1  0
 35 36  2  0
 14 37  1  0
 37 38  2  0
  5 39  1  0
 39 40  2  0
 39 41  1  0
 41  2  1  0
 10  6  1  0
 38 11  1  0
 19 15  1  0
 25 20  1  0
 30 26  1  0
 36 31  1  0
M  END
>  <Title>  (1018) 
idABNDgen8

$$$$

     RDKit          2D

 13 13  0  0  0  0  0  0  0  0999 V2000
    4.6771   -1.2990    0.0000 C   0  0  0  0  0  0  0  0  0  0  0  0
    3.9271    0.0000    0.0000 O   0  0  0  0  0  0  0  0  0  0  0  0
    2.4271    0.0000    0.0000 C   0  0  0  0  0  0  0  0  0  0  0  0
    1.9635   -1.4266    0.0000 C   0  0  0  0  0  0  0  0  0  0  0  0
    0.7500   -2.3083    0.0000 C   0  0  0  0  0  0  0  0  0  0  0  0
   -0.7500   -2.3083    0.0000 C   0  0  0  0  0  0  0  0  0  0  0  0
   -1.9635   -1.4266    0.0000 C   0  0  0  0  0  0  0  0  0  0  0  0
   -2.4271    0.0000    0.0000 C   0  0  0  0  0  0  0  0  0  0  0  0
   -1.9635    1.4266    0.0000 C   0  0  0  0  0  0  0  0  0  0  0  0
   -0.7500    2.3083    0.0000 C   0  0  0  0  0  0  0  0  0  0  0  0
    0.7500    2.3083    0.0000 C   0  0  0  0  0  0  0  0  0  0  0  0
    1.9635    1.4266    0.0000 C   0  0  0  0  0  0  0  0  0  0  0  0
    3.1771    2.3083    0.0000 N   0  0  0  0  0  0  0  0  0  0  0  0
  1  2  1  0
  2  3  1  0
  3  4  2  0
  4  5  1  0
  5  6  2  0
  6  7  1  0
  7  8  2  0
  8  9  1  0
  9 10  2  0
 10 11  1  0
 11 12  2  0
 12 13  1  0
 12  3  1  0
M  END
>  <Title>  (1019) 
idABNEgen8

$$$$

     RDKit          2D

 11 11  0  0  0  0  0  0  0  0999 V2000
    5.2500   -1.2990    0.0000 C   0  0  0  0  0  0  0  0  0  0  0  0
    3.7500   -1.2990    0.0000 C   0  0  0  0  0  0  0  0  0  0  0  0
    3.0000   -2.5981    0.0000 O   0  0  0  0  0  0  0  0  0  0  0  0
    3.0000    0.0000    0.0000 O   0  0  0  0  0  0  0  0  0  0  0  0
    1.5000    0.0000    0.0000 C   0  0  0  0  0  0  0  0  0  0  0  0
    0.7500   -1.2990    0.0000 C   0  0  0  0  0  0  0  0  0  0  0  0
   -0.7500   -1.2990    0.0000 C   0  0  0  0  0  0  0  0  0  0  0  0
   -1.5000    0.0000    0.0000 C   0  0  0  0  0  0  0  0  0  0  0  0
   -0.7500    1.2990    0.0000 C   0  0  0  0  0  0  0  0  0  0  0  0
    0.7500    1.2990    0.0000 C   0  0  0  0  0  0  0  0  0  0  0  0
    1.5000    2.5981    0.0000 F   0  0  0  0  0  0  0  0  0  0  0  0
  1  2  1  0
  2  3  2  0
  2  4  1  0
  4  5  1  0
  5  6  2  0
  6  7  1  0
  7  8  2  0
  8  9  1  0
  9 10  2  0
 10 11  1  0
 10  5  1  0
M  END
>  <Title>  (1020) 
idABNFgen8

$$$$

     RDKit          2D

 15 15  0  0  0  0  0  0  0  0999 V2000
    5.1478   -1.2990    0.0000 C   0  0  0  0  0  0  0  0  0  0  0  0
    4.3978    0.0000    0.0000 O   0  0  0  0  0  0  0  0  0  0  0  0
    2.8978    0.0000    0.0000 C   0  0  0  0  0  0  0  0  0  0  0  0
    2.5095   -1.4489    0.0000 C   0  0  0  0  0  0  0  0  0  0  0  0
    1.4489   -2.5095    0.0000 C   0  0  0  0  0  0  0  0  0  0  0  0
   -0.0000   -2.8978    0.0000 C   0  0  0  0  0  0  0  0  0  0  0  0
   -1.4489   -2.5095    0.0000 C   0  0  0  0  0  0  0  0  0  0  0  0
   -2.5095   -1.4489    0.0000 C   0  0  0  0  0  0  0  0  0  0  0  0
   -2.8978    0.0000    0.0000 C   0  0  0  0  0  0  0  0  0  0  0  0
   -2.5095    1.4489    0.0000 C   0  0  0  0  0  0  0  0  0  0  0  0
   -1.4489    2.5095    0.0000 C   0  0  0  0  0  0  0  0  0  0  0  0
    0.0000    2.8978    0.0000 C   0  0  0  0  0  0  0  0  0  0  0  0
    1.4489    2.5095    0.0000 C   0  0  0  0  0  0  0  0  0  0  0  0
    2.5095    1.4489    0.0000 C   0  0  0  0  0  0  0  0  0  0  0  0
    3.8086    2.1989    0.0000 C   0  0  0  0  0  0  0  0  0  0  0  0
  1  2  1  0
  2  3  1  0
  3  4  2  0
  4  5  1  0
  5  6  2  0
  6  7  1  0
  7  8  2  0
  8  9  1  0
  9 10  2  0
 10 11  1  0
 11 12  2  0
 12 13  1  0
 13 14  2  0
 14 15  1  0
 14  3  1  0
M  END
>  <Title>  (1021) 
idABNGgen8

$$$$

     RDKit          2D

 40 45  0  0  0  0  0  0  0  0999 V2000
   11.0792    3.6934    0.0000 C   0  0  0  0  0  0  0  0  0  0  0  0
    9.6749    4.2204    0.0000 C   0  0  0  0  0  0  0  0  0  0  0  0
    8.5163    3.2678    0.0000 C   0  0  0  0  0  0  0  0  0  0  0  0
    7.1119    3.7948    0.0000 C   0  0  0  0  0  0  0  0  0  0  0  0
    6.8662    5.2745    0.0000 C   0  0  0  0  0  0  0  0  0  0  0  0
    5.4618    5.8016    0.0000 C   0  0  0  0  0  0  0  0  0  0  0  0
    5.2161    7.2813    0.0000 C   0  0  0  0  0  0  0  0  0  0  0  0
    3.8117    7.8084    0.0000 C   0  0  0  0  0  0  0  0  0  0  0  0
    3.5660    9.2881    0.0000 C   0  0  0  0  0  0  0  0  0  0  0  0
    2.2245    9.9591    0.0000 N   0  0  0  0  0  0  0  0  0  0  0  0
    2.4480   11.4424    0.0000 N   0  0  0  0  0  0  0  0  0  0  0  0
    3.9278   11.6881    0.0000 N   0  0  0  0  0  0  0  0  0  0  0  0
    4.6187   10.3567    0.0000 N   0  0  0  0  0  0  0  0  0  0  0  0
    6.1020   10.1331    0.0000 C   0  0  0  0  0  0  0  0  0  0  0  0
    6.6500    8.7368    0.0000 C   0  0  0  0  0  0  0  0  0  0  0  0
    8.1332    8.5133    0.0000 C   0  0  0  0  0  0  0  0  0  0  0  0
    9.0685    9.6860    0.0000 C   0  0  0  0  0  0  0  0  0  0  0  0
    8.5204   11.0823    0.0000 C   0  0  0  0  0  0  0  0  0  0  0  0
    7.0372   11.3059    0.0000 C   0  0  0  0  0  0  0  0  0  0  0  0
    2.6531    6.8557    0.0000 C   0  0  0  0  0  0  0  0  0  0  0  0
    2.8988    5.3760    0.0000 C   0  0  0  0  0  0  0  0  0  0  0  0
    4.3032    4.8489    0.0000 C   0  0  0  0  0  0  0  0  0  0  0  0
    4.5489    3.3692    0.0000 N   0  0  0  0  0  0  0  0  0  0  0  0
    5.8905    2.6982    0.0000 N   0  0  0  0  0  0  0  0  0  0  0  0
    5.6669    1.2150    0.0000 N   0  0  0  0  0  0  0  0  0  0  0  0
    4.1872    0.9693    0.0000 N   0  0  0  0  0  0  0  0  0  0  0  0
    3.4962    2.3006    0.0000 C   0  0  0  0  0  0  0  0  0  0  0  0
    2.0130    2.5242    0.0000 N   0  0  0  0  0  0  0  0  0  0  0  0
    1.0777    1.3515    0.0000 C   0  0  0  0  0  0  0  0  0  0  0  0
    1.7286    0.0000    0.0000 C   0  0  0  0  0  0  0  0  0  0  0  0
    1.0777   -1.3515    0.0000 C   0  0  0  0  0  0  0  0  0  0  0  0
   -0.3846   -1.6852    0.0000 C   0  0  0  0  0  0  0  0  0  0  0  0
   -1.5574   -0.7500    0.0000 N   0  0  0  0  0  0  0  0  0  0  0  0
   -2.9088   -1.4008    0.0000 C   0  0  0  0  0  0  0  0  0  0  0  0
   -1.5574    0.7500    0.0000 N   0  0  0  0  0  0  0  0  0  0  0  0
   -0.3846    1.6852    0.0000 C   0  0  0  0  0  0  0  0  0  0  0  0
   -0.7184    3.1476    0.0000 O   0  0  0  0  0  0  0  0  0  0  0  0
    8.0248    6.2272    0.0000 N   0  0  0  0  0  0  0  0  0  0  0  0
    9.4292    5.7002    0.0000 C   0  0  0  0  0  0  0  0  0  0  0  0
   10.5878    6.6528    0.0000 O   0  0  0  0  0  0  0  0  0  0  0  0
  1  2  1  0
  2  3  2  0
  3  4  1  0
  4  5  2  0
  5  6  1  0
  6  7  2  0
  7  8  1  0
  8  9  1  0
  9 10  2  0
 10 11  1  0
 11 12  2  0
 12 13  1  0
 13 14  1  0
 14 15  2  0
 15 16  1  0
 16 17  2  0
 17 18  1  0
 18 19  2  0
  8 20  2  0
 20 21  1  0
 21 22  2  0
 22 23  1  0
 23 24  1  0
 24 25  2  0
 25 26  1  0
 26 27  2  0
 27 28  1  0
 28 29  1  0
 29 30  2  0
 30 31  1  0
 31 32  2  0
 32 33  1  0
 33 34  1  0
 33 35  1  0
 35 36  1  0
 36 37  2  0
  5 38  1  0
 38 39  1  0
 39 40  2  0
 39  2  1  0
 22  6  1  0
 27 23  1  0
 36 29  1  0
 13  9  1  0
 19 14  1  0
M  END
>  <Title>  (1022) 
idABNHgen8

$$$$

     RDKit          2D

 20 20  0  0  0  0  0  0  0  0999 V2000
    7.1205   -1.2990    0.0000 C   0  0  0  0  0  0  0  0  0  0  0  0
    5.6205   -1.2990    0.0000 C   0  0  0  0  0  0  0  0  0  0  0  0
    4.8705   -2.5981    0.0000 O   0  0  0  0  0  0  0  0  0  0  0  0
    4.8705    0.0000    0.0000 O   0  0  0  0  0  0  0  0  0  0  0  0
    3.3705    0.0000    0.0000 C   0  0  0  0  0  0  0  0  0  0  0  0
    3.0367   -1.4624    0.0000 C   0  0  0  0  0  0  0  0  0  0  0  0
    2.1015   -2.6351    0.0000 C   0  0  0  0  0  0  0  0  0  0  0  0
    0.7500   -3.2860    0.0000 C   0  0  0  0  0  0  0  0  0  0  0  0
   -0.7500   -3.2860    0.0000 C   0  0  0  0  0  0  0  0  0  0  0  0
   -2.1015   -2.6351    0.0000 C   0  0  0  0  0  0  0  0  0  0  0  0
   -3.0367   -3.8079    0.0000 F   0  0  0  0  0  0  0  0  0  0  0  0
   -3.0367   -1.4624    0.0000 C   0  0  0  0  0  0  0  0  0  0  0  0
   -3.3705    0.0000    0.0000 C   0  0  0  0  0  0  0  0  0  0  0  0
   -3.0367    1.4624    0.0000 C   0  0  0  0  0  0  0  0  0  0  0  0
   -2.1015    2.6351    0.0000 C   0  0  0  0  0  0  0  0  0  0  0  0
   -0.7500    3.2860    0.0000 C   0  0  0  0  0  0  0  0  0  0  0  0
    0.7500    3.2860    0.0000 C   0  0  0  0  0  0  0  0  0  0  0  0
    2.1015    2.6351    0.0000 C   0  0  0  0  0  0  0  0  0  0  0  0
    3.0367    1.4624    0.0000 C   0  0  0  0  0  0  0  0  0  0  0  0
    4.3881    2.1132    0.0000 O   0  0  0  0  0  0  0  0  0  0  0  0
  1  2  1  0
  2  3  2  0
  2  4  1  0
  4  5  1  0
  5  6  2  0
  6  7  1  0
  7  8  2  0
  8  9  2  0
  9 10  2  0
 10 11  1  0
 10 12  1  0
 12 13  2  0
 13 14  1  0
 14 15  2  0
 15 16  1  0
 16 17  2  0
 17 18  1  0
 18 19  2  0
 19 20  1  0
 19  5  1  0
M  END
>  <Title>  (1023) 
idABNIgen8

$$$$

     RDKit          2D

 16 17  0  0  0  0  0  0  0  0999 V2000
    3.0000   -5.1962    0.0000 O   0  0  0  0  0  0  0  0  0  0  0  0
    1.5000   -5.1962    0.0000 C   0  0  0  0  0  0  0  0  0  0  0  0
    0.7500   -3.8971    0.0000 N   0  0  0  0  0  0  0  0  0  0  0  0
    1.5000   -2.5981    0.0000 C   0  0  0  0  0  0  0  0  0  0  0  0
    0.7500   -1.2990    0.0000 C   0  0  0  0  0  0  0  0  0  0  0  0
    1.5000    0.0000    0.0000 C   0  0  0  0  0  0  0  0  0  0  0  0
    0.7500    1.2990    0.0000 C   0  0  0  0  0  0  0  0  0  0  0  0
   -0.7500    1.2990    0.0000 C   0  0  0  0  0  0  0  0  0  0  0  0
   -1.5000    0.0000    0.0000 C   0  0  0  0  0  0  0  0  0  0  0  0
   -0.7500   -1.2990    0.0000 C   0  0  0  0  0  0  0  0  0  0  0  0
    0.7500   -6.4952    0.0000 C   0  0  0  0  0  0  0  0  0  0  0  0
   -0.7500   -6.4952    0.0000 C   0  0  0  0  0  0  0  0  0  0  0  0
   -1.5000   -7.7942    0.0000 C   0  0  0  0  0  0  0  0  0  0  0  0
   -0.7500   -9.0933    0.0000 C   0  0  0  0  0  0  0  0  0  0  0  0
    0.7500   -9.0933    0.0000 C   0  0  0  0  0  0  0  0  0  0  0  0
    1.5000   -7.7942    0.0000 C   0  0  0  0  0  0  0  0  0  0  0  0
  1  2  2  0
  2  3  1  0
  3  4  1  0
  4  5  1  0
  5  6  2  0
  6  7  1  0
  7  8  2  0
  8  9  1  0
  9 10  2  0
  2 11  1  0
 11 12  2  0
 12 13  1  0
 13 14  2  0
 14 15  1  0
 15 16  2  0
 10  5  1  0
 16 11  1  0
M  END
>  <Title>  (1024) 
idABNJgen8

$$$$

     RDKit          2D

 62 69  0  0  0  0  0  0  0  0999 V2000
    4.3534   13.9513    0.0000 C   0  0  0  0  0  0  0  0  0  0  0  0
    5.8120   13.6012    0.0000 C   0  0  0  0  0  0  0  0  0  0  0  0
    6.8445   14.6892    0.0000 C   0  0  0  0  0  0  0  0  0  0  0  0
    8.3031   14.3391    0.0000 C   0  0  0  0  0  0  0  0  0  0  0  0
    8.7291   12.9008    0.0000 C   0  0  0  0  0  0  0  0  0  0  0  0
   10.1877   12.5507    0.0000 N   0  0  0  0  0  0  0  0  0  0  0  0
   11.3283   13.5248    0.0000 N   0  0  0  0  0  0  0  0  0  0  0  0
   12.6072   12.7411    0.0000 N   0  0  0  0  0  0  0  0  0  0  0  0
   12.2571   11.2825    0.0000 N   0  0  0  0  0  0  0  0  0  0  0  0
   10.7617   11.1648    0.0000 C   0  0  0  0  0  0  0  0  0  0  0  0
    9.9779    9.8859    0.0000 N   0  0  0  0  0  0  0  0  0  0  0  0
    8.4785    9.9251    0.0000 C   0  0  0  0  0  0  0  0  0  0  0  0
    7.6576   10.8209    0.0000 O   0  0  0  0  0  0  0  0  0  0  0  0
    7.6947    8.6462    0.0000 C   0  0  0  0  0  0  0  0  0  0  0  0
    6.1952    8.6855    0.0000 C   0  0  0  0  0  0  0  0  0  0  0  0
    5.4115    7.4065    0.0000 C   0  0  0  0  0  0  0  0  0  0  0  0
    6.1272    6.0883    0.0000 C   0  0  0  0  0  0  0  0  0  0  0  0
    5.3435    4.8093    0.0000 N   0  0  0  0  0  0  0  0  0  0  0  0
    6.2251    3.5958    0.0000 C   0  0  0  0  0  0  0  0  0  0  0  0
    7.6837    3.9459    0.0000 C   0  0  0  0  0  0  0  0  0  0  0  0
    5.9905    2.1142    0.0000 C   0  0  0  0  0  0  0  0  0  0  0  0
    4.7770    1.2326    0.0000 C   0  0  0  0  0  0  0  0  0  0  0  0
    3.2954    1.4672    0.0000 C   0  0  0  0  0  0  0  0  0  0  0  0
    3.6073    0.0000    0.0000 C   0  0  0  0  0  0  0  0  0  0  0  0
    3.2954   -1.4672    0.0000 C   0  0  0  0  0  0  0  0  0  0  0  0
    2.4138   -2.6807    0.0000 C   0  0  0  0  0  0  0  0  0  0  0  0
    1.1147   -3.4307    0.0000 C   0  0  0  0  0  0  0  0  0  0  0  0
   -0.3771   -3.5875    0.0000 C   0  0  0  0  0  0  0  0  0  0  0  0
   -1.8037   -3.1240    0.0000 C   0  0  0  0  0  0  0  0  0  0  0  0
   -2.9184   -2.1203    0.0000 C   0  0  0  0  0  0  0  0  0  0  0  0
   -3.5285   -0.7500    0.0000 C   0  0  0  0  0  0  0  0  0  0  0  0
   -3.5285    0.7500    0.0000 C   0  0  0  0  0  0  0  0  0  0  0  0
   -2.9184    2.1203    0.0000 C   0  0  0  0  0  0  0  0  0  0  0  0
   -1.8037    3.1240    0.0000 C   0  0  0  0  0  0  0  0  0  0  0  0
   -0.3771    3.5875    0.0000 C   0  0  0  0  0  0  0  0  0  0  0  0
    1.1147    3.4307    0.0000 C   0  0  0  0  0  0  0  0  0  0  0  0
    2.4138    2.6807    0.0000 C   0  0  0  0  0  0  0  0  0  0  0  0
    2.6484    4.1623    0.0000 C   0  0  0  0  0  0  0  0  0  0  0  0
    1.2781    4.7724    0.0000 C   0  0  0  0  0  0  0  0  0  0  0  0
    1.1213    6.2642    0.0000 C   0  0  0  0  0  0  0  0  0  0  0  0
    2.3348    7.1458    0.0000 C   0  0  0  0  0  0  0  0  0  0  0  0
    2.1780    8.6376    0.0000 C   0  0  0  0  0  0  0  0  0  0  0  0
    0.7008    8.8980    0.0000 O   0  0  0  0  0  0  0  0  0  0  0  0
    3.3916    9.5193    0.0000 N   0  0  0  0  0  0  0  0  0  0  0  0
    3.2348   11.0111    0.0000 C   0  0  0  0  0  0  0  0  0  0  0  0
    4.3495   12.0148    0.0000 N   0  0  0  0  0  0  0  0  0  0  0  0
    3.7394   13.3851    0.0000 N   0  0  0  0  0  0  0  0  0  0  0  0
    2.2476   13.2283    0.0000 N   0  0  0  0  0  0  0  0  0  0  0  0
    1.9357   11.7611    0.0000 N   0  0  0  0  0  0  0  0  0  0  0  0
    0.5654   11.1510    0.0000 C   0  0  0  0  0  0  0  0  0  0  0  0
    0.4086    9.6592    0.0000 C   0  0  0  0  0  0  0  0  0  0  0  0
   -0.9617    9.0491    0.0000 C   0  0  0  0  0  0  0  0  0  0  0  0
   -2.1752    9.9308    0.0000 C   0  0  0  0  0  0  0  0  0  0  0  0
   -2.0184   11.4226    0.0000 C   0  0  0  0  0  0  0  0  0  0  0  0
   -0.6481   12.0327    0.0000 C   0  0  0  0  0  0  0  0  0  0  0  0
    3.7051    6.5357    0.0000 C   0  0  0  0  0  0  0  0  0  0  0  0
    3.8619    5.0440    0.0000 C   0  0  0  0  0  0  0  0  0  0  0  0
    7.6267    6.0490    0.0000 N   0  0  0  0  0  0  0  0  0  0  0  0
    8.4104    7.3280    0.0000 N   0  0  0  0  0  0  0  0  0  0  0  0
    7.6966   11.8128    0.0000 N   0  0  0  0  0  0  0  0  0  0  0  0
    6.2380   12.1629    0.0000 C   0  0  0  0  0  0  0  0  0  0  0  0
    5.2055   11.0749    0.0000 O   0  0  0  0  0  0  0  0  0  0  0  0
  1  2  1  0
  2  3  2  0
  3  4  1  0
  4  5  2  0
  5  6  1  0
  6  7  1  0
  7  8  2  0
  8  9  1  0
  9 10  2  0
 10 11  1  0
 11 12  1  0
 12 13  2  0
 12 14  1  0
 14 15  2  0
 15 16  1  0
 16 17  2  0
 17 18  1  0
 18 19  1  0
 19 20  1  0
 19 21  2  0
 21 22  1  0
 22 23  2  0
 23 24  1  0
 24 25  2  0
 25 26  1  0
 26 27  2  0
 27 28  1  0
 28 29  2  0
 29 30  1  0
 30 31  2  0
 31 32  1  0
 32 33  2  0
 33 34  1  0
 34 35  2  0
 35 36  1  0
 36 37  2  0
 37 38  1  0
 38 39  2  0
 39 40  1  0
 40 41  2  0
 41 42  1  0
 42 43  2  0
 42 44  1  0
 44 45  1  0
 45 46  2  0
 46 47  1  0
 47 48  2  0
 48 49  1  0
 49 50  1  0
 50 51  2  0
 51 52  1  0
 52 53  2  0
 53 54  1  0
 54 55  2  0
 41 56  1  0
 56 57  2  0
 17 58  1  0
 58 59  2  0
  5 60  1  0
 60 61  1  0
 61 62  2  0
 61  2  1  0
 10  6  1  0
 59 14  1  0
 57 18  1  0
 37 23  1  0
 57 38  1  0
 49 45  1  0
 55 50  1  0
M  END
>  <Title>  (1025) 
idABNKgen8

$$$$

     RDKit          2D

 20 22  0  0  0  0  0  0  0  0999 V2000
    3.0000    0.0000    0.0000 C   0  0  0  0  0  0  0  0  0  0  0  0
    1.5000    0.0000    0.0000 C   0  0  0  0  0  0  0  0  0  0  0  0
    0.7500   -1.2990    0.0000 C   0  0  0  0  0  0  0  0  0  0  0  0
   -0.7500   -1.2990    0.0000 C   0  0  0  0  0  0  0  0  0  0  0  0
   -1.5000    0.0000    0.0000 C   0  0  0  0  0  0  0  0  0  0  0  0
   -3.0000    0.0000    0.0000 C   0  0  0  0  0  0  0  0  0  0  0  0
   -3.8817   -1.2135    0.0000 N   0  0  0  0  0  0  0  0  0  0  0  0
   -5.3083   -0.7500    0.0000 N   0  0  0  0  0  0  0  0  0  0  0  0
   -5.3083    0.7500    0.0000 N   0  0  0  0  0  0  0  0  0  0  0  0
   -3.8817    1.2135    0.0000 N   0  0  0  0  0  0  0  0  0  0  0  0
   -3.4182    2.6401    0.0000 C   0  0  0  0  0  0  0  0  0  0  0  0
   -1.9509    2.9520    0.0000 C   0  0  0  0  0  0  0  0  0  0  0  0
   -1.4874    4.3786    0.0000 C   0  0  0  0  0  0  0  0  0  0  0  0
   -2.4911    5.4933    0.0000 C   0  0  0  0  0  0  0  0  0  0  0  0
   -2.0276    6.9199    0.0000 C   0  0  0  0  0  0  0  0  0  0  0  0
   -3.9583    5.1814    0.0000 C   0  0  0  0  0  0  0  0  0  0  0  0
   -4.9620    6.2961    0.0000 O   0  0  0  0  0  0  0  0  0  0  0  0
   -4.4218    3.7548    0.0000 N   0  0  0  0  0  0  0  0  0  0  0  0
   -0.7500    1.2990    0.0000 N   0  0  0  0  0  0  0  0  0  0  0  0
    0.7500    1.2990    0.0000 C   0  0  0  0  0  0  0  0  0  0  0  0
  1  2  1  0
  2  3  2  0
  3  4  1  0
  4  5  2  0
  5  6  1  0
  6  7  2  0
  7  8  1  0
  8  9  2  0
  9 10  1  0
 10 11  1  0
 11 12  2  0
 12 13  1  0
 13 14  2  0
 14 15  1  0
 14 16  1  0
 16 17  2  0
 16 18  1  0
  5 19  1  0
 19 20  2  0
 20  2  1  0
 10  6  1  0
 18 11  1  0
M  END
>  <Title>  (1026) 
idABNLgen8

$$$$

     RDKit          2D

 48 55  0  0  0  0  0  0  0  0999 V2000
    1.4416   -8.2093    0.0000 C   0  0  0  0  0  0  0  0  0  0  0  0
    0.1315   -7.4788    0.0000 C   0  0  0  0  0  0  0  0  0  0  0  0
   -1.1562   -8.2481    0.0000 C   0  0  0  0  0  0  0  0  0  0  0  0
   -2.4663   -7.5176    0.0000 C   0  0  0  0  0  0  0  0  0  0  0  0
   -2.4887   -6.0178    0.0000 C   0  0  0  0  0  0  0  0  0  0  0  0
   -3.7988   -5.2873    0.0000 C   0  0  0  0  0  0  0  0  0  0  0  0
   -3.8213   -3.7875    0.0000 C   0  0  0  0  0  0  0  0  0  0  0  0
   -5.1314   -3.0570    0.0000 C   0  0  0  0  0  0  0  0  0  0  0  0
   -5.1538   -1.5572    0.0000 C   0  0  0  0  0  0  0  0  0  0  0  0
   -6.3804   -0.6938    0.0000 N   0  0  0  0  0  0  0  0  0  0  0  0
   -5.9383    0.7396    0.0000 N   0  0  0  0  0  0  0  0  0  0  0  0
   -4.4384    0.7620    0.0000 N   0  0  0  0  0  0  0  0  0  0  0  0
   -3.9536   -0.6574    0.0000 N   0  0  0  0  0  0  0  0  0  0  0  0
   -2.5203   -1.0996    0.0000 C   0  0  0  0  0  0  0  0  0  0  0  0
   -2.2967   -2.5828    0.0000 C   0  0  0  0  0  0  0  0  0  0  0  0
   -0.9977   -3.3328    0.0000 C   0  0  0  0  0  0  0  0  0  0  0  0
    0.3987   -2.7848    0.0000 C   0  0  0  0  0  0  0  0  0  0  0  0
    1.4982   -3.8051    0.0000 N   0  0  0  0  0  0  0  0  0  0  0  0
    2.9316   -3.3629    0.0000 C   0  0  0  0  0  0  0  0  0  0  0  0
    3.2654   -1.9005    0.0000 C   0  0  0  0  0  0  0  0  0  0  0  0
    4.6987   -1.4584    0.0000 C   0  0  0  0  0  0  0  0  0  0  0  0
    5.7983   -2.4787    0.0000 C   0  0  0  0  0  0  0  0  0  0  0  0
    5.4645   -3.9411    0.0000 C   0  0  0  0  0  0  0  0  0  0  0  0
    4.0312   -4.3832    0.0000 C   0  0  0  0  0  0  0  0  0  0  0  0
    0.7500   -1.2990    0.0000 C   0  0  0  0  0  0  0  0  0  0  0  0
    1.5000    0.0000    0.0000 N   0  0  0  0  0  0  0  0  0  0  0  0
    0.7500    1.2990    0.0000 N   0  0  0  0  0  0  0  0  0  0  0  0
   -0.7500    1.2990    0.0000 N   0  0  0  0  0  0  0  0  0  0  0  0
   -1.5000    0.0000    0.0000 N   0  0  0  0  0  0  0  0  0  0  0  0
   -0.7500   -1.2990    0.0000 C   0  0  0  0  0  0  0  0  0  0  0  0
   -1.0848   -2.4670    0.0000 O   0  0  0  0  0  0  0  0  0  0  0  0
   -6.4191   -3.8264    0.0000 C   0  0  0  0  0  0  0  0  0  0  0  0
   -6.3966   -5.3262    0.0000 C   0  0  0  0  0  0  0  0  0  0  0  0
   -5.0865   -6.0567    0.0000 C   0  0  0  0  0  0  0  0  0  0  0  0
   -5.0641   -7.5565    0.0000 N   0  0  0  0  0  0  0  0  0  0  0  0
   -3.8375   -8.4199    0.0000 N   0  0  0  0  0  0  0  0  0  0  0  0
   -4.2796   -9.8533    0.0000 N   0  0  0  0  0  0  0  0  0  0  0  0
   -5.7794   -9.8757    0.0000 N   0  0  0  0  0  0  0  0  0  0  0  0
   -6.2643   -8.4562    0.0000 C   0  0  0  0  0  0  0  0  0  0  0  0
   -7.6976   -8.0141    0.0000 C   0  0  0  0  0  0  0  0  0  0  0  0
   -8.0314   -6.5517    0.0000 C   0  0  0  0  0  0  0  0  0  0  0  0
   -9.4648   -6.1096    0.0000 C   0  0  0  0  0  0  0  0  0  0  0  0
  -10.5643   -7.1298    0.0000 C   0  0  0  0  0  0  0  0  0  0  0  0
  -11.9977   -6.6877    0.0000 C   0  0  0  0  0  0  0  0  0  0  0  0
  -10.2306   -8.5922    0.0000 C   0  0  0  0  0  0  0  0  0  0  0  0
   -8.7972   -9.0344    0.0000 C   0  0  0  0  0  0  0  0  0  0  0  0
   -1.2010   -5.2485    0.0000 C   0  0  0  0  0  0  0  0  0  0  0  0
    0.1091   -5.9789    0.0000 C   0  0  0  0  0  0  0  0  0  0  0  0
  1  2  1  0
  2  3  2  0
  3  4  1  0
  4  5  2  0
  5  6  1  0
  6  7  2  0
  7  8  1  0
  8  9  1  0
  9 10  2  0
 10 11  1  0
 11 12  2  0
 12 13  1  0
 13 14  1  0
 14 15  2  0
 15 16  1  0
 16 17  2  0
 17 18  1  0
 18 19  1  0
 19 20  2  0
 20 21  1  0
 21 22  2  0
 22 23  1  0
 23 24  2  0
 17 25  1  0
 25 26  2  0
 26 27  1  0
 27 28  2  0
 28 29  1  0
 29 30  1  0
 30 31  2  0
  8 32  2  0
 32 33  1  0
 33 34  2  0
 34 35  1  0
 35 36  1  0
 36 37  2  0
 37 38  1  0
 38 39  2  0
 39 40  1  0
 40 41  2  0
 41 42  1  0
 42 43  2  0
 43 44  1  0
 43 45  1  0
 45 46  2  0
  5 47  1  0
 47 48  2  0
 48  2  1  0
 34  6  1  0
 39 35  1  0
 46 40  1  0
 13  9  1  0
 29 14  1  0
 24 19  1  0
 30 25  1  0
M  END
>  <Title>  (1027) 
idABNMgen8

$$$$

     RDKit          2D

 10 10  0  0  0  0  0  0  0  0999 V2000
    3.4598   -0.0000    0.0000 C   0  0  0  0  0  0  0  0  0  0  0  0
    1.9598    0.0000    0.0000 C   0  0  0  0  0  0  0  0  0  0  0  0
    1.3858   -1.3858    0.0000 C   0  0  0  0  0  0  0  0  0  0  0  0
   -0.0000   -1.9598    0.0000 C   0  0  0  0  0  0  0  0  0  0  0  0
   -1.3858   -1.3858    0.0000 C   0  0  0  0  0  0  0  0  0  0  0  0
   -1.9598    0.0000    0.0000 C   0  0  0  0  0  0  0  0  0  0  0  0
   -1.3858    1.3858    0.0000 C   0  0  0  0  0  0  0  0  0  0  0  0
   -2.4465    2.4465    0.0000 F   0  0  0  0  0  0  0  0  0  0  0  0
    0.0000    1.9598    0.0000 C   0  0  0  0  0  0  0  0  0  0  0  0
    1.3858    1.3858    0.0000 C   0  0  0  0  0  0  0  0  0  0  0  0
  1  2  1  0
  2  3  2  0
  3  4  1  0
  4  5  2  0
  5  6  1  0
  6  7  2  0
  7  8  1  0
  7  9  1  0
  9 10  2  0
 10  2  1  0
M  END
>  <Title>  (1028) 
idABNNgen8

$$$$

     RDKit          2D

 63 72  0  0  0  0  0  0  0  0999 V2000
  -10.1624    4.2767    0.0000 C   0  0  0  0  0  0  0  0  0  0  0  0
   -8.9488    3.3950    0.0000 C   0  0  0  0  0  0  0  0  0  0  0  0
   -9.1056    1.9033    0.0000 C   0  0  0  0  0  0  0  0  0  0  0  0
   -7.8921    1.0216    0.0000 C   0  0  0  0  0  0  0  0  0  0  0  0
   -6.5218    1.6317    0.0000 C   0  0  0  0  0  0  0  0  0  0  0  0
   -5.3083    0.7500    0.0000 C   0  0  0  0  0  0  0  0  0  0  0  0
   -5.3083   -0.7500    0.0000 N   0  0  0  0  0  0  0  0  0  0  0  0
   -3.8817   -1.2135    0.0000 N   0  0  0  0  0  0  0  0  0  0  0  0
   -3.0000    0.0000    0.0000 N   0  0  0  0  0  0  0  0  0  0  0  0
   -3.8817    1.2135    0.0000 N   0  0  0  0  0  0  0  0  0  0  0  0
   -3.4182    2.6401    0.0000 C   0  0  0  0  0  0  0  0  0  0  0  0
   -4.2998    3.8536    0.0000 N   0  0  0  0  0  0  0  0  0  0  0  0
   -3.4182    5.0672    0.0000 N   0  0  0  0  0  0  0  0  0  0  0  0
   -1.9916    4.6036    0.0000 N   0  0  0  0  0  0  0  0  0  0  0  0
   -1.9916    3.1036    0.0000 N   0  0  0  0  0  0  0  0  0  0  0  0
   -0.7780    2.2220    0.0000 C   0  0  0  0  0  0  0  0  0  0  0  0
   -0.9348    0.7302    0.0000 C   0  0  0  0  0  0  0  0  0  0  0  0
    0.2787   -0.1515    0.0000 C   0  0  0  0  0  0  0  0  0  0  0  0
    1.6490    0.4586    0.0000 C   0  0  0  0  0  0  0  0  0  0  0  0
    2.8625   -0.4231    0.0000 C   0  0  0  0  0  0  0  0  0  0  0  0
    4.2891    0.0404    0.0000 N   0  0  0  0  0  0  0  0  0  0  0  0
    5.1708   -1.1731    0.0000 N   0  0  0  0  0  0  0  0  0  0  0  0
    4.2891   -2.3866    0.0000 N   0  0  0  0  0  0  0  0  0  0  0  0
    2.8625   -1.9231    0.0000 N   0  0  0  0  0  0  0  0  0  0  0  0
    1.6490   -2.8048    0.0000 C   0  0  0  0  0  0  0  0  0  0  0  0
    0.2787   -2.1946    0.0000 C   0  0  0  0  0  0  0  0  0  0  0  0
   -0.9348   -3.0763    0.0000 C   0  0  0  0  0  0  0  0  0  0  0  0
   -0.7780   -4.5681    0.0000 C   0  0  0  0  0  0  0  0  0  0  0  0
    0.5923   -5.1782    0.0000 C   0  0  0  0  0  0  0  0  0  0  0  0
    1.8058   -4.2965    0.0000 C   0  0  0  0  0  0  0  0  0  0  0  0
    3.1761   -4.9066    0.0000 C   0  0  0  0  0  0  0  0  0  0  0  0
    3.3329   -6.3984    0.0000 C   0  0  0  0  0  0  0  0  0  0  0  0
    4.7032   -7.0085    0.0000 C   0  0  0  0  0  0  0  0  0  0  0  0
    5.9168   -6.1269    0.0000 C   0  0  0  0  0  0  0  0  0  0  0  0
    5.7600   -4.6351    0.0000 C   0  0  0  0  0  0  0  0  0  0  0  0
    4.3896   -4.0250    0.0000 C   0  0  0  0  0  0  0  0  0  0  0  0
    1.8058    1.9504    0.0000 C   0  0  0  0  0  0  0  0  0  0  0  0
    0.5923    2.8321    0.0000 C   0  0  0  0  0  0  0  0  0  0  0  0
    0.7491    4.3238    0.0000 C   0  0  0  0  0  0  0  0  0  0  0  0
   -0.4645    5.2055    0.0000 C   0  0  0  0  0  0  0  0  0  0  0  0
   -0.3077    6.6973    0.0000 C   0  0  0  0  0  0  0  0  0  0  0  0
    1.0627    7.3074    0.0000 C   0  0  0  0  0  0  0  0  0  0  0  0
    1.2194    8.7992    0.0000 C   0  0  0  0  0  0  0  0  0  0  0  0
    0.0059    9.6809    0.0000 C   0  0  0  0  0  0  0  0  0  0  0  0
    0.1627   11.1727    0.0000 C   0  0  0  0  0  0  0  0  0  0  0  0
    1.5330   11.7828    0.0000 C   0  0  0  0  0  0  0  0  0  0  0  0
    2.7466   10.9011    0.0000 N   0  0  0  0  0  0  0  0  0  0  0  0
    2.5898    9.4093    0.0000 C   0  0  0  0  0  0  0  0  0  0  0  0
    2.2762    6.4257    0.0000 C   0  0  0  0  0  0  0  0  0  0  0  0
    2.1194    4.9340    0.0000 C   0  0  0  0  0  0  0  0  0  0  0  0
    3.3329    4.0523    0.0000 C   0  0  0  0  0  0  0  0  0  0  0  0
    3.1761    2.5605    0.0000 C   0  0  0  0  0  0  0  0  0  0  0  0
    4.3896    1.6788    0.0000 C   0  0  0  0  0  0  0  0  0  0  0  0
    5.7600    2.2889    0.0000 C   0  0  0  0  0  0  0  0  0  0  0  0
    6.9735    1.4072    0.0000 C   0  0  0  0  0  0  0  0  0  0  0  0
    8.3438    2.0173    0.0000 O   0  0  0  0  0  0  0  0  0  0  0  0
    6.8167   -0.0845    0.0000 N   0  0  0  0  0  0  0  0  0  0  0  0
    8.0302   -0.9662    0.0000 O   0  0  0  0  0  0  0  0  0  0  0  0
    5.9168    3.7807    0.0000 C   0  0  0  0  0  0  0  0  0  0  0  0
    7.2871    4.3908    0.0000 O   0  0  0  0  0  0  0  0  0  0  0  0
    4.7032    4.6624    0.0000 N   0  0  0  0  0  0  0  0  0  0  0  0
   -6.3650    3.1235    0.0000 N   0  0  0  0  0  0  0  0  0  0  0  0
   -7.5785    4.0051    0.0000 C   0  0  0  0  0  0  0  0  0  0  0  0
  1  2  1  0
  2  3  2  0
  3  4  1  0
  4  5  2  0
  5  6  1  0
  6  7  2  0
  7  8  1  0
  8  9  2  0
  9 10  1  0
 10 11  1  0
 11 12  2  0
 12 13  1  0
 13 14  2  0
 14 15  1  0
 15 16  1  0
 16 17  2  0
 17 18  1  0
 18 19  2  0
 19 20  1  0
 20 21  2  0
 21 22  1  0
 22 23  2  0
 23 24  1  0
 24 25  1  0
 25 26  2  0
 26 27  1  0
 27 28  2  0
 28 29  1  0
 29 30  2  0
 30 31  1  0
 31 32  2  0
 32 33  1  0
 33 34  2  0
 34 35  1  0
 35 36  2  0
 19 37  1  0
 37 38  2  0
 38 39  1  0
 39 40  2  0
 40 41  1  0
 41 42  2  0
 42 43  1  0
 43 44  2  0
 44 45  1  0
 45 46  2  0
 46 47  1  0
 47 48  2  0
 42 49  1  0
 49 50  2  0
 50 51  1  0
 51 52  2  0
 52 53  1  0
 53 54  2  0
 54 55  1  0
 55 56  2  0
 55 57  1  0
 57 58  1  0
 54 59  1  0
 59 60  2  0
 59 61  1  0
  5 62  1  0
 62 63  1  0
 63  2  1  0
 10  6  1  0
 15 11  1  0
 38 16  1  0
 50 39  1  0
 61 51  1  0
 24 20  1  0
 30 25  1  0
 36 31  1  0
 48 43  1  0
M  END
>  <Title>  (1029) 
idABNOgen8

$$$$

     RDKit          2D

 58 66  0  0  0  0  0  0  0  0999 V2000
    8.7843   11.1926    0.0000 C   0  0  0  0  0  0  0  0  0  0  0  0
    7.3600   10.7223    0.0000 C   0  0  0  0  0  0  0  0  0  0  0  0
    7.2494    9.2264    0.0000 C   0  0  0  0  0  0  0  0  0  0  0  0
    6.1134    8.2468    0.0000 C   0  0  0  0  0  0  0  0  0  0  0  0
    4.6175    8.3573    0.0000 C   0  0  0  0  0  0  0  0  0  0  0  0
    3.9429    7.0176    0.0000 C   0  0  0  0  0  0  0  0  0  0  0  0
    4.6302    5.6843    0.0000 N   0  0  0  0  0  0  0  0  0  0  0  0
    3.5746    4.6186    0.0000 N   0  0  0  0  0  0  0  0  0  0  0  0
    2.2349    5.2933    0.0000 N   0  0  0  0  0  0  0  0  0  0  0  0
    2.4625    6.7759    0.0000 N   0  0  0  0  0  0  0  0  0  0  0  0
    1.3968    7.8315    0.0000 C   0  0  0  0  0  0  0  0  0  0  0  0
    1.7781    9.2822    0.0000 C   0  0  0  0  0  0  0  0  0  0  0  0
    0.7124   10.3378    0.0000 C   0  0  0  0  0  0  0  0  0  0  0  0
   -0.7346    9.9427    0.0000 C   0  0  0  0  0  0  0  0  0  0  0  0
   -1.1159    8.4920    0.0000 C   0  0  0  0  0  0  0  0  0  0  0  0
   -0.0502    7.4364    0.0000 C   0  0  0  0  0  0  0  0  0  0  0  0
   -0.4316    5.9857    0.0000 C   0  0  0  0  0  0  0  0  0  0  0  0
    0.8530    5.2111    0.0000 C   0  0  0  0  0  0  0  0  0  0  0  0
    1.5148    3.8650    0.0000 C   0  0  0  0  0  0  0  0  0  0  0  0
    1.3438    2.3747    0.0000 C   0  0  0  0  0  0  0  0  0  0  0  0
    2.7255    1.7908    0.0000 C   0  0  0  0  0  0  0  0  0  0  0  0
    3.9220    2.6955    0.0000 C   0  0  0  0  0  0  0  0  0  0  0  0
    5.3037    2.1115    0.0000 C   0  0  0  0  0  0  0  0  0  0  0  0
    5.4889    0.6230    0.0000 C   0  0  0  0  0  0  0  0  0  0  0  0
    4.2924   -0.2816    0.0000 C   0  0  0  0  0  0  0  0  0  0  0  0
    2.9107    0.3023    0.0000 C   0  0  0  0  0  0  0  0  0  0  0  0
    1.9686   -0.8650    0.0000 O   0  0  0  0  0  0  0  0  0  0  0  0
    0.3943    1.2135    0.0000 C   0  0  0  0  0  0  0  0  0  0  0  0
    1.2760    0.0000    0.0000 N   0  0  0  0  0  0  0  0  0  0  0  0
    0.3943   -1.2135    0.0000 N   0  0  0  0  0  0  0  0  0  0  0  0
   -1.0323   -0.7500    0.0000 N   0  0  0  0  0  0  0  0  0  0  0  0
   -1.0323    0.7500    0.0000 N   0  0  0  0  0  0  0  0  0  0  0  0
   -2.4830    1.1313    0.0000 C   0  0  0  0  0  0  0  0  0  0  0  0
   -3.2206   -0.1748    0.0000 C   0  0  0  0  0  0  0  0  0  0  0  0
   -4.6907    0.1231    0.0000 N   0  0  0  0  0  0  0  0  0  0  0  0
   -4.8617    1.6133    0.0000 N   0  0  0  0  0  0  0  0  0  0  0  0
   -3.4973    2.2364    0.0000 N   0  0  0  0  0  0  0  0  0  0  0  0
   -3.7531    3.7145    0.0000 C   0  0  0  0  0  0  0  0  0  0  0  0
   -5.0964    4.3818    0.0000 C   0  0  0  0  0  0  0  0  0  0  0  0
   -5.4123    5.8482    0.0000 C   0  0  0  0  0  0  0  0  0  0  0  0
   -4.4628    7.0094    0.0000 C   0  0  0  0  0  0  0  0  0  0  0  0
   -5.0970    8.3687    0.0000 C   0  0  0  0  0  0  0  0  0  0  0  0
   -6.5913    8.4991    0.0000 O   0  0  0  0  0  0  0  0  0  0  0  0
   -4.2369    9.5976    0.0000 N   0  0  0  0  0  0  0  0  0  0  0  0
   -4.8712   10.9569    0.0000 C   0  0  0  0  0  0  0  0  0  0  0  0
   -4.0111   12.1859    0.0000 C   0  0  0  0  0  0  0  0  0  0  0  0
   -4.6453   13.5452    0.0000 C   0  0  0  0  0  0  0  0  0  0  0  0
   -6.1396   13.6756    0.0000 C   0  0  0  0  0  0  0  0  0  0  0  0
   -6.9997   12.4466    0.0000 C   0  0  0  0  0  0  0  0  0  0  0  0
   -6.3655   11.0873    0.0000 C   0  0  0  0  0  0  0  0  0  0  0  0
   -2.9629    6.9910    0.0000 C   0  0  0  0  0  0  0  0  0  0  0  0
   -1.9309    5.9428    0.0000 C   0  0  0  0  0  0  0  0  0  0  0  0
   -3.1691    5.0962    0.0000 C   0  0  0  0  0  0  0  0  0  0  0  0
   -4.3304    6.0457    0.0000 O   0  0  0  0  0  0  0  0  0  0  0  0
    3.6379    9.4933    0.0000 N   0  0  0  0  0  0  0  0  0  0  0  0
    3.7485   10.9892    0.0000 N   0  0  0  0  0  0  0  0  0  0  0  0
    4.8845   11.9688    0.0000 N   0  0  0  0  0  0  0  0  0  0  0  0
    6.3804   11.8582    0.0000 C   0  0  0  0  0  0  0  0  0  0  0  0
  1  2  1  0
  2  3  2  0
  3  4  1  0
  4  5  2  0
  5  6  1  0
  6  7  2  0
  7  8  1  0
  8  9  2  0
  9 10  1  0
 10 11  1  0
 11 12  1  0
 12 13  1  0
 13 14  1  0
 14 15  1  0
 15 16  1  0
 16 17  1  0
 17 18  2  0
 18 19  1  0
 19 20  2  0
 20 21  1  0
 21 22  2  0
 22 23  1  0
 23 24  2  0
 24 25  1  0
 25 26  2  0
 26 27  1  0
 20 28  1  0
 28 29  2  0
 29 30  1  0
 30 31  2  0
 31 32  1  0
 32 33  1  0
 33 34  2  0
 34 35  1  0
 35 36  2  0
 36 37  1  0
 37 38  1  0
 38 39  2  0
 39 40  1  0
 40 41  2  0
 41 42  1  0
 42 43  2  0
 42 44  1  0
 44 45  1  0
 45 46  2  0
 46 47  1  0
 47 48  2  0
 48 49  1  0
 49 50  2  0
 41 51  1  0
 51 52  2  0
 52 53  1  0
 53 54  2  0
  5 55  1  0
 55 56  2  0
 56 57  1  0
 57 58  2  0
 58  2  1  0
 10  6  1  0
 16 11  1  0
 52 17  1  0
 26 21  1  0
 32 28  1  0
 37 33  1  0
 53 38  1  0
 50 45  1  0
M  END
>  <Title>  (1030) 
idABNPgen8

$$$$

     RDKit          2D

 50 56  0  0  0  0  0  0  0  0999 V2000
    3.0000   -0.0000    0.0000 C   0  0  0  0  0  0  0  0  0  0  0  0
    1.5000   -0.0000    0.0000 C   0  0  0  0  0  0  0  0  0  0  0  0
    0.7500   -1.2990    0.0000 C   0  0  0  0  0  0  0  0  0  0  0  0
   -0.7500   -1.2990    0.0000 C   0  0  0  0  0  0  0  0  0  0  0  0
   -1.5000   -0.0000    0.0000 C   0  0  0  0  0  0  0  0  0  0  0  0
   -3.0000   -0.0000    0.0000 C   0  0  0  0  0  0  0  0  0  0  0  0
   -3.8817   -1.2135    0.0000 N   0  0  0  0  0  0  0  0  0  0  0  0
   -5.3083   -0.7500    0.0000 N   0  0  0  0  0  0  0  0  0  0  0  0
   -5.3083    0.7500    0.0000 N   0  0  0  0  0  0  0  0  0  0  0  0
   -3.8817    1.2135    0.0000 N   0  0  0  0  0  0  0  0  0  0  0  0
   -3.4182    2.6401    0.0000 C   0  0  0  0  0  0  0  0  0  0  0  0
   -4.2998    3.8536    0.0000 C   0  0  0  0  0  0  0  0  0  0  0  0
   -3.4182    5.0672    0.0000 C   0  0  0  0  0  0  0  0  0  0  0  0
   -1.9916    4.6036    0.0000 C   0  0  0  0  0  0  0  0  0  0  0  0
   -0.7780    5.4853    0.0000 C   0  0  0  0  0  0  0  0  0  0  0  0
    0.4039    4.5618    0.0000 O   0  0  0  0  0  0  0  0  0  0  0  0
   -0.9348    6.9771    0.0000 N   0  0  0  0  0  0  0  0  0  0  0  0
    0.2787    7.8588    0.0000 C   0  0  0  0  0  0  0  0  0  0  0  0
    0.2787    9.3588    0.0000 N   0  0  0  0  0  0  0  0  0  0  0  0
    1.7053    9.8223    0.0000 N   0  0  0  0  0  0  0  0  0  0  0  0
    2.5870    8.6088    0.0000 N   0  0  0  0  0  0  0  0  0  0  0  0
    1.7053    7.3952    0.0000 N   0  0  0  0  0  0  0  0  0  0  0  0
    2.1688    5.9687    0.0000 C   0  0  0  0  0  0  0  0  0  0  0  0
    1.1651    4.8539    0.0000 C   0  0  0  0  0  0  0  0  0  0  0  0
    1.6286    3.4274    0.0000 C   0  0  0  0  0  0  0  0  0  0  0  0
    3.0959    3.1155    0.0000 C   0  0  0  0  0  0  0  0  0  0  0  0
    4.0995    4.2302    0.0000 C   0  0  0  0  0  0  0  0  0  0  0  0
    3.6360    5.6568    0.0000 C   0  0  0  0  0  0  0  0  0  0  0  0
    4.6397    6.7715    0.0000 N   0  0  0  0  0  0  0  0  0  0  0  0
    6.1069    6.4596    0.0000 N   0  0  0  0  0  0  0  0  0  0  0  0
    7.1106    7.5744    0.0000 N   0  0  0  0  0  0  0  0  0  0  0  0
    6.6471    9.0009    0.0000 N   0  0  0  0  0  0  0  0  0  0  0  0
    5.1799    9.3128    0.0000 N   0  0  0  0  0  0  0  0  0  0  0  0
    4.1762    8.1981    0.0000 N   0  0  0  0  0  0  0  0  0  0  0  0
    2.7090    8.5100    0.0000 C   0  0  0  0  0  0  0  0  0  0  0  0
    2.2454    9.9366    0.0000 C   0  0  0  0  0  0  0  0  0  0  0  0
    0.7782   10.2484    0.0000 C   0  0  0  0  0  0  0  0  0  0  0  0
   -0.2255    9.1337    0.0000 C   0  0  0  0  0  0  0  0  0  0  0  0
   -1.6927    9.4456    0.0000 C   0  0  0  0  0  0  0  0  0  0  0  0
   -2.6964    8.3309    0.0000 O   0  0  0  0  0  0  0  0  0  0  0  0
   -2.1562   10.8722    0.0000 N   0  0  0  0  0  0  0  0  0  0  0  0
   -3.6234   11.1840    0.0000 O   0  0  0  0  0  0  0  0  0  0  0  0
    0.2381    7.7071    0.0000 N   0  0  0  0  0  0  0  0  0  0  0  0
    1.7053    7.3952    0.0000 C   0  0  0  0  0  0  0  0  0  0  0  0
    1.8098    5.8989    0.0000 O   0  0  0  0  0  0  0  0  0  0  0  0
   -1.9916    3.1036    0.0000 C   0  0  0  0  0  0  0  0  0  0  0  0
   -0.7780    2.2220    0.0000 O   0  0  0  0  0  0  0  0  0  0  0  0
   -0.7500    1.2990    0.0000 N   0  0  0  0  0  0  0  0  0  0  0  0
    0.7500    1.2990    0.0000 C   0  0  0  0  0  0  0  0  0  0  0  0
    1.5000    2.5981    0.0000 O   0  0  0  0  0  0  0  0  0  0  0  0
  1  2  1  0
  2  3  2  0
  3  4  1  0
  4  5  2  0
  5  6  1  0
  6  7  2  0
  7  8  1  0
  8  9  2  0
  9 10  1  0
 10 11  1  0
 11 12  2  0
 12 13  1  0
 13 14  2  0
 14 15  1  0
 15 16  2  0
 15 17  1  0
 17 18  1  0
 18 19  2  0
 19 20  1  0
 20 21  2  0
 21 22  1  0
 22 23  1  0
 23 24  2  0
 24 25  1  0
 25 26  2  0
 26 27  1  0
 27 28  2  0
 28 29  1  0
 29 30  1  0
 30 31  2  0
 31 32  1  0
 32 33  2  0
 33 34  1  0
 34 35  1  0
 35 36  2  0
 36 37  1  0
 37 38  2  0
 38 39  1  0
 39 40  2  0
 39 41  1  0
 41 42  1  0
 38 43  1  0
 43 44  1  0
 44 45  2  0
 14 46  1  0
 46 47  2  0
  5 48  1  0
 48 49  1  0
 49 50  2  0
 49  2  1  0
 10  6  1  0
 46 11  1  0
 22 18  1  0
 28 23  1  0
 34 29  1  0
 44 35  1  0
M  END
>  <Title>  (1031) 
idABNQgen8

$$$$

     RDKit          2D

 21 21  0  0  0  0  0  0  0  0999 V2000
    5.8191    0.0000    0.0000 C   0  0  0  0  0  0  0  0  0  0  0  0
    4.3191    0.0000    0.0000 C   0  0  0  0  0  0  0  0  0  0  0  0
    4.0586   -1.4772    0.0000 C   0  0  0  0  0  0  0  0  0  0  0  0
    3.3086   -2.7762    0.0000 C   0  0  0  0  0  0  0  0  0  0  0  0
    2.1595   -3.7404    0.0000 C   0  0  0  0  0  0  0  0  0  0  0  0
    0.7500   -4.2535    0.0000 C   0  0  0  0  0  0  0  0  0  0  0  0
   -0.7500   -4.2535    0.0000 C   0  0  0  0  0  0  0  0  0  0  0  0
   -2.1595   -3.7404    0.0000 C   0  0  0  0  0  0  0  0  0  0  0  0
   -3.3086   -2.7762    0.0000 C   0  0  0  0  0  0  0  0  0  0  0  0
   -4.0586   -1.4772    0.0000 C   0  0  0  0  0  0  0  0  0  0  0  0
   -4.3191    0.0000    0.0000 C   0  0  0  0  0  0  0  0  0  0  0  0
   -4.0586    1.4772    0.0000 C   0  0  0  0  0  0  0  0  0  0  0  0
   -3.3086    2.7762    0.0000 C   0  0  0  0  0  0  0  0  0  0  0  0
   -2.1595    3.7404    0.0000 C   0  0  0  0  0  0  0  0  0  0  0  0
   -2.9095    5.0395    0.0000 C   0  0  0  0  0  0  0  0  0  0  0  0
   -0.7500    4.2535    0.0000 C   0  0  0  0  0  0  0  0  0  0  0  0
   -1.0105    5.7307    0.0000 F   0  0  0  0  0  0  0  0  0  0  0  0
    0.7500    4.2535    0.0000 C   0  0  0  0  0  0  0  0  0  0  0  0
    2.1595    3.7404    0.0000 C   0  0  0  0  0  0  0  0  0  0  0  0
    3.3086    2.7762    0.0000 C   0  0  0  0  0  0  0  0  0  0  0  0
    4.0586    1.4772    0.0000 C   0  0  0  0  0  0  0  0  0  0  0  0
  1  2  1  0
  2  3  2  0
  3  4  1  0
  4  5  2  0
  5  6  1  0
  6  7  2  0
  7  8  1  0
  8  9  2  0
  9 10  1  0
 10 11  2  0
 11 12  1  0
 12 13  2  0
 13 14  1  0
 14 15  1  0
 14 16  2  0
 16 17  1  0
 16 18  1  0
 18 19  2  0
 19 20  1  0
 20 21  2  0
 21  2  1  0
M  END
>  <Title>  (1032) 
idABNRgen8

$$$$

     RDKit          2D

 37 42  0  0  0  0  0  0  0  0999 V2000
    3.0000    0.0000    0.0000 C   0  0  0  0  0  0  0  0  0  0  0  0
    1.5000    0.0000    0.0000 C   0  0  0  0  0  0  0  0  0  0  0  0
    0.7500   -1.2990    0.0000 C   0  0  0  0  0  0  0  0  0  0  0  0
   -0.7500   -1.2990    0.0000 C   0  0  0  0  0  0  0  0  0  0  0  0
   -1.5000    0.0000    0.0000 C   0  0  0  0  0  0  0  0  0  0  0  0
   -3.0000    0.0000    0.0000 C   0  0  0  0  0  0  0  0  0  0  0  0
   -3.8817   -1.2135    0.0000 N   0  0  0  0  0  0  0  0  0  0  0  0
   -5.3083   -0.7500    0.0000 N   0  0  0  0  0  0  0  0  0  0  0  0
   -5.3083    0.7500    0.0000 N   0  0  0  0  0  0  0  0  0  0  0  0
   -3.8817    1.2135    0.0000 N   0  0  0  0  0  0  0  0  0  0  0  0
   -3.4182    2.6401    0.0000 C   0  0  0  0  0  0  0  0  0  0  0  0
   -1.9509    2.9520    0.0000 C   0  0  0  0  0  0  0  0  0  0  0  0
   -1.4874    4.3786    0.0000 C   0  0  0  0  0  0  0  0  0  0  0  0
   -2.4911    5.4933    0.0000 C   0  0  0  0  0  0  0  0  0  0  0  0
   -2.0276    6.9199    0.0000 C   0  0  0  0  0  0  0  0  0  0  0  0
   -2.9093    8.1334    0.0000 N   0  0  0  0  0  0  0  0  0  0  0  0
   -2.0276    9.3469    0.0000 N   0  0  0  0  0  0  0  0  0  0  0  0
   -0.6010    8.8834    0.0000 N   0  0  0  0  0  0  0  0  0  0  0  0
   -0.6010    7.3834    0.0000 N   0  0  0  0  0  0  0  0  0  0  0  0
    0.6125    6.5017    0.0000 C   0  0  0  0  0  0  0  0  0  0  0  0
    0.4557    5.0099    0.0000 C   0  0  0  0  0  0  0  0  0  0  0  0
    1.6693    4.1283    0.0000 C   0  0  0  0  0  0  0  0  0  0  0  0
    3.0396    4.7384    0.0000 C   0  0  0  0  0  0  0  0  0  0  0  0
    3.1964    6.2301    0.0000 C   0  0  0  0  0  0  0  0  0  0  0  0
    1.9829    7.1118    0.0000 C   0  0  0  0  0  0  0  0  0  0  0  0
   -3.9583    5.1814    0.0000 C   0  0  0  0  0  0  0  0  0  0  0  0
   -4.4218    3.7548    0.0000 C   0  0  0  0  0  0  0  0  0  0  0  0
   -5.8891    3.4430    0.0000 C   0  0  0  0  0  0  0  0  0  0  0  0
   -6.8928    4.5577    0.0000 C   0  0  0  0  0  0  0  0  0  0  0  0
   -8.3600    4.2458    0.0000 C   0  0  0  0  0  0  0  0  0  0  0  0
   -8.8235    2.8192    0.0000 C   0  0  0  0  0  0  0  0  0  0  0  0
  -10.2907    2.5074    0.0000 C   0  0  0  0  0  0  0  0  0  0  0  0
   -7.8198    1.7045    0.0000 C   0  0  0  0  0  0  0  0  0  0  0  0
   -8.2833    0.2779    0.0000 O   0  0  0  0  0  0  0  0  0  0  0  0
   -6.3526    2.0164    0.0000 N   0  0  0  0  0  0  0  0  0  0  0  0
   -0.7500    1.2990    0.0000 C   0  0  0  0  0  0  0  0  0  0  0  0
    0.7500    1.2990    0.0000 C   0  0  0  0  0  0  0  0  0  0  0  0
  1  2  1  0
  2  3  2  0
  3  4  1  0
  4  5  2  0
  5  6  1  0
  6  7  2  0
  7  8  1  0
  8  9  2  0
  9 10  1  0
 10 11  1  0
 11 12  2  0
 12 13  1  0
 13 14  2  0
 14 15  1  0
 15 16  2  0
 16 17  1  0
 17 18  2  0
 18 19  1  0
 19 20  1  0
 20 21  2  0
 21 22  1  0
 22 23  2  0
 23 24  1  0
 24 25  2  0
 14 26  1  0
 26 27  2  0
 27 28  1  0
 28 29  2  0
 29 30  1  0
 30 31  2  0
 31 32  1  0
 31 33  1  0
 33 34  2  0
 33 35  1  0
  5 36  1  0
 36 37  2  0
 37  2  1  0
 10  6  1  0
 27 11  1  0
 35 28  1  0
 19 15  1  0
 25 20  1  0
M  END
>  <Title>  (1033) 
idABNSgen8

$$$$

     RDKit          2D

 30 34  0  0  0  0  0  0  0  0999 V2000
    3.0000    0.0000    0.0000 C   0  0  0  0  0  0  0  0  0  0  0  0
    1.5000    0.0000    0.0000 C   0  0  0  0  0  0  0  0  0  0  0  0
    0.7500    1.2990    0.0000 C   0  0  0  0  0  0  0  0  0  0  0  0
   -0.7500    1.2990    0.0000 C   0  0  0  0  0  0  0  0  0  0  0  0
   -1.5000    0.0000    0.0000 C   0  0  0  0  0  0  0  0  0  0  0  0
   -3.0000    0.0000    0.0000 C   0  0  0  0  0  0  0  0  0  0  0  0
   -3.8817   -1.2135    0.0000 N   0  0  0  0  0  0  0  0  0  0  0  0
   -5.3083   -0.7500    0.0000 N   0  0  0  0  0  0  0  0  0  0  0  0
   -5.3083    0.7500    0.0000 N   0  0  0  0  0  0  0  0  0  0  0  0
   -3.8817    1.2135    0.0000 N   0  0  0  0  0  0  0  0  0  0  0  0
   -3.4182    2.6401    0.0000 C   0  0  0  0  0  0  0  0  0  0  0  0
   -4.2998    3.8536    0.0000 C   0  0  0  0  0  0  0  0  0  0  0  0
   -3.4182    5.0672    0.0000 C   0  0  0  0  0  0  0  0  0  0  0  0
   -1.9916    4.6036    0.0000 C   0  0  0  0  0  0  0  0  0  0  0  0
   -0.7780    5.4853    0.0000 C   0  0  0  0  0  0  0  0  0  0  0  0
    0.6485    5.0218    0.0000 N   0  0  0  0  0  0  0  0  0  0  0  0
    1.5302    6.2353    0.0000 N   0  0  0  0  0  0  0  0  0  0  0  0
    0.6485    7.4488    0.0000 N   0  0  0  0  0  0  0  0  0  0  0  0
   -0.7780    6.9853    0.0000 N   0  0  0  0  0  0  0  0  0  0  0  0
   -1.9916    7.8670    0.0000 C   0  0  0  0  0  0  0  0  0  0  0  0
   -3.3619    7.2569    0.0000 C   0  0  0  0  0  0  0  0  0  0  0  0
   -4.5754    8.1386    0.0000 C   0  0  0  0  0  0  0  0  0  0  0  0
   -4.4186    9.6303    0.0000 C   0  0  0  0  0  0  0  0  0  0  0  0
   -3.0483   10.2405    0.0000 C   0  0  0  0  0  0  0  0  0  0  0  0
   -1.8348    9.3588    0.0000 C   0  0  0  0  0  0  0  0  0  0  0  0
   -1.9916    3.1036    0.0000 C   0  0  0  0  0  0  0  0  0  0  0  0
   -0.7780    2.2220    0.0000 O   0  0  0  0  0  0  0  0  0  0  0  0
   -0.7500   -1.2990    0.0000 C   0  0  0  0  0  0  0  0  0  0  0  0
   -1.5000   -2.5981    0.0000 O   0  0  0  0  0  0  0  0  0  0  0  0
    0.7500   -1.2990    0.0000 N   0  0  0  0  0  0  0  0  0  0  0  0
  1  2  1  0
  2  3  2  0
  3  4  1  0
  4  5  2  0
  5  6  1  0
  6  7  2  0
  7  8  1  0
  8  9  2  0
  9 10  1  0
 10 11  1  0
 11 12  2  0
 12 13  1  0
 13 14  2  0
 14 15  1  0
 15 16  2  0
 16 17  1  0
 17 18  2  0
 18 19  1  0
 19 20  1  0
 20 21  2  0
 21 22  1  0
 22 23  2  0
 23 24  1  0
 24 25  2  0
 14 26  1  0
 26 27  2  0
  5 28  1  0
 28 29  2  0
 28 30  1  0
 30  2  1  0
 10  6  1  0
 26 11  1  0
 19 15  1  0
 25 20  1  0
M  END
>  <Title>  (1034) 
idABNTgen8

$$$$

     RDKit          2D

 35 35  0  0  0  0  0  0  0  0999 V2000
    9.6285    0.0000    0.0000 C   0  0  0  0  0  0  0  0  0  0  0  0
    8.1285    0.0000    0.0000 C   0  0  0  0  0  0  0  0  0  0  0  0
    7.9901   -1.4936    0.0000 C   0  0  0  0  0  0  0  0  0  0  0  0
    7.5796   -2.9363    0.0000 C   0  0  0  0  0  0  0  0  0  0  0  0
    6.9110   -4.2791    0.0000 C   0  0  0  0  0  0  0  0  0  0  0  0
    6.0070   -5.4761    0.0000 C   0  0  0  0  0  0  0  0  0  0  0  0
    4.8985   -6.4867    0.0000 C   0  0  0  0  0  0  0  0  0  0  0  0
    3.6232   -7.2763    0.0000 C   0  0  0  0  0  0  0  0  0  0  0  0
    2.2245   -7.8182    0.0000 C   0  0  0  0  0  0  0  0  0  0  0  0
    0.7500   -8.0938    0.0000 C   0  0  0  0  0  0  0  0  0  0  0  0
   -0.7500   -8.0938    0.0000 C   0  0  0  0  0  0  0  0  0  0  0  0
   -2.2245   -7.8182    0.0000 C   0  0  0  0  0  0  0  0  0  0  0  0
   -3.6232   -7.2763    0.0000 C   0  0  0  0  0  0  0  0  0  0  0  0
   -4.8985   -6.4867    0.0000 C   0  0  0  0  0  0  0  0  0  0  0  0
   -6.0070   -5.4761    0.0000 C   0  0  0  0  0  0  0  0  0  0  0  0
   -6.9110   -4.2791    0.0000 C   0  0  0  0  0  0  0  0  0  0  0  0
   -7.5796   -2.9363    0.0000 C   0  0  0  0  0  0  0  0  0  0  0  0
   -7.9901   -1.4936    0.0000 C   0  0  0  0  0  0  0  0  0  0  0  0
   -8.1285    0.0000    0.0000 C   0  0  0  0  0  0  0  0  0  0  0  0
   -7.9901    1.4936    0.0000 C   0  0  0  0  0  0  0  0  0  0  0  0
   -7.5796    2.9363    0.0000 C   0  0  0  0  0  0  0  0  0  0  0  0
   -6.9110    4.2791    0.0000 C   0  0  0  0  0  0  0  0  0  0  0  0
   -6.0070    5.4761    0.0000 C   0  0  0  0  0  0  0  0  0  0  0  0
   -4.8985    6.4867    0.0000 C   0  0  0  0  0  0  0  0  0  0  0  0
   -3.6232    7.2763    0.0000 C   0  0  0  0  0  0  0  0  0  0  0  0
   -2.2245    7.8182    0.0000 C   0  0  0  0  0  0  0  0  0  0  0  0
   -0.7500    8.0938    0.0000 C   0  0  0  0  0  0  0  0  0  0  0  0
    0.7500    8.0938    0.0000 C   0  0  0  0  0  0  0  0  0  0  0  0
    2.2245    7.8182    0.0000 C   0  0  0  0  0  0  0  0  0  0  0  0
    3.6232    7.2763    0.0000 C   0  0  0  0  0  0  0  0  0  0  0  0
    4.8985    6.4867    0.0000 C   0  0  0  0  0  0  0  0  0  0  0  0
    6.0070    5.4761    0.0000 C   0  0  0  0  0  0  0  0  0  0  0  0
    6.9110    4.2791    0.0000 C   0  0  0  0  0  0  0  0  0  0  0  0
    7.5796    2.9363    0.0000 C   0  0  0  0  0  0  0  0  0  0  0  0
    7.9901    1.4936    0.0000 C   0  0  0  0  0  0  0  0  0  0  0  0
  1  2  1  0
  2  3  2  0
  3  4  1  0
  4  5  2  0
  5  6  1  0
  6  7  2  0
  7  8  1  0
  8  9  2  0
  9 10  1  0
 10 11  2  0
 11 12  1  0
 12 13  2  0
 13 14  1  0
 14 15  2  0
 15 16  1  0
 16 17  2  0
 17 18  1  0
 18 19  2  0
 19 20  1  0
 20 21  2  0
 21 22  1  0
 22 23  2  0
 23 24  1  0
 24 25  2  0
 25 26  1  0
 26 27  2  0
 27 28  1  0
 28 29  2  0
 29 30  1  0
 30 31  2  0
 31 32  1  0
 32 33  2  0
 33 34  1  0
 34 35  2  0
 35  2  1  0
M  END
>  <Title>  (1035) 
idABNUgen8

$$$$

     RDKit          2D

 11 11  0  0  0  0  0  0  0  0999 V2000
    5.2500   -1.2990    0.0000 C   0  0  0  0  0  0  0  0  0  0  0  0
    3.7500   -1.2990    0.0000 C   0  0  0  0  0  0  0  0  0  0  0  0
    3.0000   -2.5981    0.0000 O   0  0  0  0  0  0  0  0  0  0  0  0
    3.0000    0.0000    0.0000 O   0  0  0  0  0  0  0  0  0  0  0  0
    1.5000    0.0000    0.0000 C   0  0  0  0  0  0  0  0  0  0  0  0
    0.7500   -1.2990    0.0000 C   0  0  0  0  0  0  0  0  0  0  0  0
   -0.7500   -1.2990    0.0000 C   0  0  0  0  0  0  0  0  0  0  0  0
   -1.5000    0.0000    0.0000 C   0  0  0  0  0  0  0  0  0  0  0  0
   -0.7500    1.2990    0.0000 C   0  0  0  0  0  0  0  0  0  0  0  0
    0.7500    1.2990    0.0000 C   0  0  0  0  0  0  0  0  0  0  0  0
    1.5000    2.5981    0.0000 C   0  0  0  0  0  0  0  0  0  0  0  0
  1  2  1  0
  2  3  2  0
  2  4  1  0
  4  5  1  0
  5  6  2  0
  6  7  1  0
  7  8  2  0
  8  9  1  0
  9 10  2  0
 10 11  1  0
 10  5  1  0
M  END
>  <Title>  (1036) 
idABNVgen8

$$$$

     RDKit          2D

 21 23  0  0  0  0  0  0  0  0999 V2000
   -0.7500   -3.8971    0.0000 O   0  0  0  0  0  0  0  0  0  0  0  0
    0.7500   -3.8971    0.0000 C   0  0  0  0  0  0  0  0  0  0  0  0
    1.5000   -2.5981    0.0000 C   0  0  0  0  0  0  0  0  0  0  0  0
    0.7500   -1.2990    0.0000 C   0  0  0  0  0  0  0  0  0  0  0  0
    1.5000    0.0000    0.0000 C   0  0  0  0  0  0  0  0  0  0  0  0
    0.7500    1.2990    0.0000 C   0  0  0  0  0  0  0  0  0  0  0  0
   -0.7500    1.2990    0.0000 C   0  0  0  0  0  0  0  0  0  0  0  0
   -1.5000    0.0000    0.0000 C   0  0  0  0  0  0  0  0  0  0  0  0
   -0.7500   -1.2990    0.0000 C   0  0  0  0  0  0  0  0  0  0  0  0
    1.5000   -5.1962    0.0000 C   0  0  0  0  0  0  0  0  0  0  0  0
    0.7500   -6.4952    0.0000 C   0  0  0  0  0  0  0  0  0  0  0  0
    1.5000   -7.7942    0.0000 C   0  0  0  0  0  0  0  0  0  0  0  0
    3.0000   -7.7942    0.0000 C   0  0  0  0  0  0  0  0  0  0  0  0
    3.7500   -6.4952    0.0000 C   0  0  0  0  0  0  0  0  0  0  0  0
    3.0000   -5.1962    0.0000 C   0  0  0  0  0  0  0  0  0  0  0  0
    3.7500   -3.8971    0.0000 C   0  0  0  0  0  0  0  0  0  0  0  0
    5.2500   -3.8971    0.0000 C   0  0  0  0  0  0  0  0  0  0  0  0
    6.0000   -2.5981    0.0000 C   0  0  0  0  0  0  0  0  0  0  0  0
    5.2500   -1.2990    0.0000 C   0  0  0  0  0  0  0  0  0  0  0  0
    3.7500   -1.2990    0.0000 C   0  0  0  0  0  0  0  0  0  0  0  0
    3.0000   -2.5981    0.0000 C   0  0  0  0  0  0  0  0  0  0  0  0
  1  2  2  0
  2  3  1  0
  3  4  1  0
  4  5  2  0
  5  6  1  0
  6  7  2  0
  7  8  1  0
  8  9  2  0
  2 10  1  0
 10 11  2  0
 11 12  1  0
 12 13  2  0
 13 14  1  0
 14 15  2  0
 15 16  1  0
 16 17  2  0
 17 18  1  0
 18 19  2  0
 19 20  1  0
 20 21  2  0
  9  4  1  0
 15 10  1  0
 21 16  1  0
M  END
>  <Title>  (1037) 
idABNWgen8

$$$$

     RDKit          2D

 26 26  0  0  0  0  0  0  0  0999 V2000
    7.4840    0.0000    0.0000 C   0  0  0  0  0  0  0  0  0  0  0  0
    5.9840    0.0000    0.0000 C   0  0  0  0  0  0  0  0  0  0  0  0
    5.7960    1.4882    0.0000 C   0  0  0  0  0  0  0  0  0  0  0  0
    5.2439    2.8828    0.0000 C   0  0  0  0  0  0  0  0  0  0  0  0
    4.3622    4.0964    0.0000 C   0  0  0  0  0  0  0  0  0  0  0  0
    3.2064    5.0525    0.0000 C   0  0  0  0  0  0  0  0  0  0  0  0
    1.8492    5.6912    0.0000 C   0  0  0  0  0  0  0  0  0  0  0  0
    0.3757    5.9722    0.0000 C   0  0  0  0  0  0  0  0  0  0  0  0
   -1.1213    5.8781    0.0000 C   0  0  0  0  0  0  0  0  0  0  0  0
   -2.5479    5.4145    0.0000 C   0  0  0  0  0  0  0  0  0  0  0  0
   -3.8144    4.6108    0.0000 C   0  0  0  0  0  0  0  0  0  0  0  0
   -4.8412    3.5173    0.0000 C   0  0  0  0  0  0  0  0  0  0  0  0
   -5.5638    2.2029    0.0000 C   0  0  0  0  0  0  0  0  0  0  0  0
   -5.9369    0.7500    0.0000 C   0  0  0  0  0  0  0  0  0  0  0  0
   -5.9369   -0.7500    0.0000 C   0  0  0  0  0  0  0  0  0  0  0  0
   -5.5638   -2.2029    0.0000 C   0  0  0  0  0  0  0  0  0  0  0  0
   -4.8412   -3.5173    0.0000 C   0  0  0  0  0  0  0  0  0  0  0  0
   -3.8144   -4.6108    0.0000 C   0  0  0  0  0  0  0  0  0  0  0  0
   -2.5479   -5.4145    0.0000 C   0  0  0  0  0  0  0  0  0  0  0  0
   -1.1213   -5.8781    0.0000 C   0  0  0  0  0  0  0  0  0  0  0  0
    0.3757   -5.9722    0.0000 C   0  0  0  0  0  0  0  0  0  0  0  0
    1.8492   -5.6912    0.0000 C   0  0  0  0  0  0  0  0  0  0  0  0
    3.2064   -5.0525    0.0000 C   0  0  0  0  0  0  0  0  0  0  0  0
    4.3622   -4.0964    0.0000 C   0  0  0  0  0  0  0  0  0  0  0  0
    5.2439   -2.8828    0.0000 C   0  0  0  0  0  0  0  0  0  0  0  0
    5.7960   -1.4882    0.0000 C   0  0  0  0  0  0  0  0  0  0  0  0
  1  2  1  0
  2  3  2  0
  3  4  1  0
  4  5  2  0
  5  6  2  0
  6  7  1  0
  7  8  2  0
  8  9  1  0
  9 10  2  0
 10 11  1  0
 11 12  2  0
 12 13  1  0
 13 14  2  0
 14 15  1  0
 15 16  2  0
 16 17  1  0
 17 18  2  0
 18 19  1  0
 19 20  2  0
 20 21  1  0
 21 22  2  0
 22 23  1  0
 23 24  2  0
 24 25  1  0
 25 26  2  0
 26  2  1  0
M  END
>  <Title>  (1038) 
idABNXgen8

$$$$

     RDKit          2D

 39 44  0  0  0  0  0  0  0  0999 V2000
    3.7500   -1.2990    0.0000 C   0  0  0  0  0  0  0  0  0  0  0  0
    3.0000    0.0000    0.0000 O   0  0  0  0  0  0  0  0  0  0  0  0
    1.5000    0.0000    0.0000 C   0  0  0  0  0  0  0  0  0  0  0  0
    0.7500   -1.2990    0.0000 C   0  0  0  0  0  0  0  0  0  0  0  0
   -0.7500   -1.2990    0.0000 C   0  0  0  0  0  0  0  0  0  0  0  0
   -1.5000    0.0000    0.0000 C   0  0  0  0  0  0  0  0  0  0  0  0
   -3.0000    0.0000    0.0000 C   0  0  0  0  0  0  0  0  0  0  0  0
   -3.8817   -1.2135    0.0000 N   0  0  0  0  0  0  0  0  0  0  0  0
   -5.3083   -0.7500    0.0000 N   0  0  0  0  0  0  0  0  0  0  0  0
   -5.3083    0.7500    0.0000 N   0  0  0  0  0  0  0  0  0  0  0  0
   -3.8817    1.2135    0.0000 N   0  0  0  0  0  0  0  0  0  0  0  0
   -3.4182    2.6401    0.0000 C   0  0  0  0  0  0  0  0  0  0  0  0
   -1.9509    2.9520    0.0000 C   0  0  0  0  0  0  0  0  0  0  0  0
   -1.4874    4.3786    0.0000 C   0  0  0  0  0  0  0  0  0  0  0  0
   -2.4911    5.4933    0.0000 C   0  0  0  0  0  0  0  0  0  0  0  0
   -2.0276    6.9199    0.0000 C   0  0  0  0  0  0  0  0  0  0  0  0
   -3.0313    8.0346    0.0000 O   0  0  0  0  0  0  0  0  0  0  0  0
   -0.5604    7.2317    0.0000 N   0  0  0  0  0  0  0  0  0  0  0  0
   -0.0968    8.6583    0.0000 C   0  0  0  0  0  0  0  0  0  0  0  0
   -0.9785    9.8718    0.0000 N   0  0  0  0  0  0  0  0  0  0  0  0
   -0.0968   11.0854    0.0000 N   0  0  0  0  0  0  0  0  0  0  0  0
    1.3298   10.6218    0.0000 N   0  0  0  0  0  0  0  0  0  0  0  0
    1.3298    9.1218    0.0000 N   0  0  0  0  0  0  0  0  0  0  0  0
    2.5433    8.2402    0.0000 C   0  0  0  0  0  0  0  0  0  0  0  0
    2.3865    6.7484    0.0000 C   0  0  0  0  0  0  0  0  0  0  0  0
    3.6000    5.8667    0.0000 C   0  0  0  0  0  0  0  0  0  0  0  0
    4.9703    6.4768    0.0000 C   0  0  0  0  0  0  0  0  0  0  0  0
    5.1271    7.9686    0.0000 C   0  0  0  0  0  0  0  0  0  0  0  0
    3.9136    8.8503    0.0000 C   0  0  0  0  0  0  0  0  0  0  0  0
    4.0704   10.3421    0.0000 C   0  0  0  0  0  0  0  0  0  0  0  0
    5.4407   10.9522    0.0000 C   0  0  0  0  0  0  0  0  0  0  0  0
    5.5975   12.4439    0.0000 C   0  0  0  0  0  0  0  0  0  0  0  0
    4.3840   13.3256    0.0000 C   0  0  0  0  0  0  0  0  0  0  0  0
    3.0137   12.7155    0.0000 C   0  0  0  0  0  0  0  0  0  0  0  0
    2.8569   11.2237    0.0000 C   0  0  0  0  0  0  0  0  0  0  0  0
   -3.9583    5.1814    0.0000 C   0  0  0  0  0  0  0  0  0  0  0  0
   -4.4218    3.7548    0.0000 C   0  0  0  0  0  0  0  0  0  0  0  0
   -0.7500    1.2990    0.0000 C   0  0  0  0  0  0  0  0  0  0  0  0
    0.7500    1.2990    0.0000 C   0  0  0  0  0  0  0  0  0  0  0  0
  1  2  1  0
  2  3  1  0
  3  4  2  0
  4  5  1  0
  5  6  2  0
  6  7  1  0
  7  8  2  0
  8  9  1  0
  9 10  2  0
 10 11  1  0
 11 12  1  0
 12 13  2  0
 13 14  1  0
 14 15  2  0
 15 16  1  0
 16 17  2  0
 16 18  1  0
 18 19  1  0
 19 20  2  0
 20 21  1  0
 21 22  2  0
 22 23  1  0
 23 24  1  0
 24 25  2  0
 25 26  1  0
 26 27  2  0
 27 28  1  0
 28 29  2  0
 29 30  1  0
 30 31  2  0
 31 32  1  0
 32 33  2  0
 33 34  1  0
 34 35  2  0
 15 36  1  0
 36 37  2  0
  6 38  1  0
 38 39  2  0
 39  3  1  0
 11  7  1  0
 37 12  1  0
 23 19  1  0
 29 24  1  0
 35 30  1  0
M  END
>  <Title>  (1039) 
idABNYgen8

$$$$

     RDKit          2D

 26 26  0  0  0  0  0  0  0  0999 V2000
    7.9960   -1.2990    0.0000 O   0  0  0  0  0  0  0  0  0  0  0  0
    7.2460    0.0000    0.0000 C   0  0  0  0  0  0  0  0  0  0  0  0
    5.7460    0.0000    0.0000 C   0  0  0  0  0  0  0  0  0  0  0  0
    5.5502   -1.4872    0.0000 C   0  0  0  0  0  0  0  0  0  0  0  0
    4.9762   -2.8730    0.0000 C   0  0  0  0  0  0  0  0  0  0  0  0
    4.0630   -4.0630    0.0000 C   0  0  0  0  0  0  0  0  0  0  0  0
    2.8730   -4.9762    0.0000 C   0  0  0  0  0  0  0  0  0  0  0  0
    1.4872   -5.5502    0.0000 C   0  0  0  0  0  0  0  0  0  0  0  0
   -0.0000   -5.7460    0.0000 C   0  0  0  0  0  0  0  0  0  0  0  0
   -1.4872   -5.5502    0.0000 C   0  0  0  0  0  0  0  0  0  0  0  0
   -2.8730   -4.9762    0.0000 C   0  0  0  0  0  0  0  0  0  0  0  0
   -4.0630   -4.0630    0.0000 C   0  0  0  0  0  0  0  0  0  0  0  0
   -4.9762   -2.8730    0.0000 C   0  0  0  0  0  0  0  0  0  0  0  0
   -5.5502   -1.4872    0.0000 C   0  0  0  0  0  0  0  0  0  0  0  0
   -5.7460    0.0000    0.0000 C   0  0  0  0  0  0  0  0  0  0  0  0
   -5.5502    1.4872    0.0000 C   0  0  0  0  0  0  0  0  0  0  0  0
   -4.9762    2.8730    0.0000 C   0  0  0  0  0  0  0  0  0  0  0  0
   -4.0630    4.0630    0.0000 C   0  0  0  0  0  0  0  0  0  0  0  0
   -2.8730    4.9762    0.0000 C   0  0  0  0  0  0  0  0  0  0  0  0
   -1.4872    5.5502    0.0000 C   0  0  0  0  0  0  0  0  0  0  0  0
    0.0000    5.7460    0.0000 C   0  0  0  0  0  0  0  0  0  0  0  0
    1.4872    5.5502    0.0000 C   0  0  0  0  0  0  0  0  0  0  0  0
    2.8730    4.9762    0.0000 C   0  0  0  0  0  0  0  0  0  0  0  0
    4.0630    4.0630    0.0000 C   0  0  0  0  0  0  0  0  0  0  0  0
    4.9762    2.8730    0.0000 C   0  0  0  0  0  0  0  0  0  0  0  0
    5.5502    1.4872    0.0000 C   0  0  0  0  0  0  0  0  0  0  0  0
  1  2  1  0
  2  3  1  0
  3  4  2  0
  4  5  1  0
  5  6  2  0
  6  7  1  0
  7  8  2  0
  8  9  1  0
  9 10  2  0
 10 11  1  0
 11 12  2  0
 12 13  1  0
 13 14  2  0
 14 15  1  0
 15 16  2  0
 16 17  1  0
 17 18  2  0
 18 19  1  0
 19 20  2  0
 20 21  1  0
 21 22  2  0
 22 23  1  0
 23 24  2  0
 24 25  1  0
 25 26  2  0
 26  3  1  0
M  END
>  <Title>  (1040) 
idABNZgen8

$$$$

     RDKit          2D

 27 27  0  0  0  0  0  0  0  0999 V2000
   26.0260  -14.2894    0.0000 C   0  0  0  0  0  0  0  0  0  0  0  0
   25.2760  -12.9904    0.0000 C   0  0  0  0  0  0  0  0  0  0  0  0
   23.7760  -12.9904    0.0000 N   0  0  0  0  0  0  0  0  0  0  0  0
   23.0260  -11.6913    0.0000 C   0  0  0  0  0  0  0  0  0  0  0  0
   21.5260  -11.6913    0.0000 C   0  0  0  0  0  0  0  0  0  0  0  0
   20.7760  -10.3923    0.0000 C   0  0  0  0  0  0  0  0  0  0  0  0
   19.2760  -10.3923    0.0000 C   0  0  0  0  0  0  0  0  0  0  0  0
   18.5260   -9.0933    0.0000 C   0  0  0  0  0  0  0  0  0  0  0  0
   17.0260   -9.0933    0.0000 C   0  0  0  0  0  0  0  0  0  0  0  0
   16.2760   -7.7942    0.0000 C   0  0  0  0  0  0  0  0  0  0  0  0
   14.7760   -7.7942    0.0000 C   0  0  0  0  0  0  0  0  0  0  0  0
   14.0260   -6.4952    0.0000 C   0  0  0  0  0  0  0  0  0  0  0  0
   12.5260   -6.4952    0.0000 C   0  0  0  0  0  0  0  0  0  0  0  0
   11.7760   -5.1962    0.0000 C   0  0  0  0  0  0  0  0  0  0  0  0
   10.2760   -5.1962    0.0000 C   0  0  0  0  0  0  0  0  0  0  0  0
    9.5260   -3.8971    0.0000 C   0  0  0  0  0  0  0  0  0  0  0  0
    8.0260   -3.8971    0.0000 C   0  0  0  0  0  0  0  0  0  0  0  0
    7.2760   -2.5981    0.0000 C   0  0  0  0  0  0  0  0  0  0  0  0
    5.7760   -2.5981    0.0000 C   0  0  0  0  0  0  0  0  0  0  0  0
    5.0260   -1.2990    0.0000 C   0  0  0  0  0  0  0  0  0  0  0  0
    3.5260   -1.2990    0.0000 C   0  0  0  0  0  0  0  0  0  0  0  0
    2.7760    0.0000    0.0000 C   0  0  0  0  0  0  0  0  0  0  0  0
    1.2760    0.0000    0.0000 C   0  0  0  0  0  0  0  0  0  0  0  0
    0.3943    1.2135    0.0000 C   0  0  0  0  0  0  0  0  0  0  0  0
   -1.0323    0.7500    0.0000 C   0  0  0  0  0  0  0  0  0  0  0  0
   -1.0323   -0.7500    0.0000 C   0  0  0  0  0  0  0  0  0  0  0  0
    0.3943   -1.2135    0.0000 O   0  0  0  0  0  0  0  0  0  0  0  0
  1  2  1  0
  2  3  1  0
  3  4  1  0
  4  5  2  3
  5  6  1  0
  6  7  2  3
  7  8  1  0
  8  9  2  3
  9 10  1  0
 10 11  2  3
 11 12  1  0
 12 13  2  3
 13 14  1  0
 14 15  2  3
 15 16  1  0
 16 17  2  3
 17 18  1  0
 18 19  2  3
 19 20  1  0
 20 21  2  3
 21 22  1  0
 22 23  2  3
 23 24  1  0
 24 25  1  0
 25 26  1  0
 26 27  1  0
 27 23  1  0
M  END
>  <Title>  (1041) 
idABOAgen8

$$$$

     RDKit          2D

 24 25  0  0  0  0  0  0  0  0999 V2000
    8.8018    3.9220    0.0000 C   0  0  0  0  0  0  0  0  0  0  0  0
    7.4803    4.6316    0.0000 O   0  0  0  0  0  0  0  0  0  0  0  0
    6.2050    3.8420    0.0000 C   0  0  0  0  0  0  0  0  0  0  0  0
    6.3631    2.3503    0.0000 C   0  0  0  0  0  0  0  0  0  0  0  0
    5.2954    1.2967    0.0000 C   0  0  0  0  0  0  0  0  0  0  0  0
    3.8060    1.4745    0.0000 C   0  0  0  0  0  0  0  0  0  0  0  0
    4.0816    0.0000    0.0000 C   0  0  0  0  0  0  0  0  0  0  0  0
    3.8060   -1.4745    0.0000 C   0  0  0  0  0  0  0  0  0  0  0  0
    3.0164   -2.7498    0.0000 C   0  0  0  0  0  0  0  0  0  0  0  0
    1.8193   -3.6537    0.0000 C   0  0  0  0  0  0  0  0  0  0  0  0
    0.3766   -4.0642    0.0000 C   0  0  0  0  0  0  0  0  0  0  0  0
   -1.1170   -3.9258    0.0000 C   0  0  0  0  0  0  0  0  0  0  0  0
   -2.4597   -3.2572    0.0000 C   0  0  0  0  0  0  0  0  0  0  0  0
   -3.4703   -2.1487    0.0000 C   0  0  0  0  0  0  0  0  0  0  0  0
   -4.0121   -0.7500    0.0000 C   0  0  0  0  0  0  0  0  0  0  0  0
   -4.0121    0.7500    0.0000 C   0  0  0  0  0  0  0  0  0  0  0  0
   -3.4703    2.1487    0.0000 C   0  0  0  0  0  0  0  0  0  0  0  0
   -2.4597    3.2572    0.0000 C   0  0  0  0  0  0  0  0  0  0  0  0
   -1.1170    3.9258    0.0000 C   0  0  0  0  0  0  0  0  0  0  0  0
    0.3766    4.0642    0.0000 C   0  0  0  0  0  0  0  0  0  0  0  0
    1.8193    3.6537    0.0000 C   0  0  0  0  0  0  0  0  0  0  0  0
    3.0164    2.7498    0.0000 C   0  0  0  0  0  0  0  0  0  0  0  0
    3.5211    4.1623    0.0000 C   0  0  0  0  0  0  0  0  0  0  0  0
    4.9402    4.6484    0.0000 C   0  0  0  0  0  0  0  0  0  0  0  0
  1  2  1  0
  2  3  1  0
  3  4  2  0
  4  5  1  0
  5  6  2  0
  6  7  1  0
  7  8  2  0
  8  9  1  0
  9 10  2  0
 10 11  1  0
 11 12  2  0
 12 13  1  0
 13 14  2  0
 14 15  1  0
 15 16  2  0
 16 17  1  0
 17 18  2  0
 18 19  1  0
 19 20  2  0
 20 21  1  0
 21 22  2  0
 22 23  1  0
 23 24  1  0
 24  3  1  0
 22  6  1  0
M  END
>  <Title>  (1042) 
idABOBgen8

$$$$

     RDKit          2D

 15 16  0  0  0  0  0  0  0  0999 V2000
   -5.2433    3.8855    0.0000 C   0  0  0  0  0  0  0  0  0  0  0  0
   -3.7531    3.7145    0.0000 C   0  0  0  0  0  0  0  0  0  0  0  0
   -3.1691    5.0962    0.0000 C   0  0  0  0  0  0  0  0  0  0  0  0
   -1.9309    5.9428    0.0000 C   0  0  0  0  0  0  0  0  0  0  0  0
   -0.4316    5.9857    0.0000 C   0  0  0  0  0  0  0  0  0  0  0  0
    0.8530    5.2111    0.0000 C   0  0  0  0  0  0  0  0  0  0  0  0
    1.5148    3.8650    0.0000 N   0  0  0  0  0  0  0  0  0  0  0  0
    1.3438    2.3747    0.0000 N   0  0  0  0  0  0  0  0  0  0  0  0
    0.3943    1.2135    0.0000 C   0  0  0  0  0  0  0  0  0  0  0  0
    1.2760    0.0000    0.0000 C   0  0  0  0  0  0  0  0  0  0  0  0
    0.3943   -1.2135    0.0000 C   0  0  0  0  0  0  0  0  0  0  0  0
   -1.0323   -0.7500    0.0000 C   0  0  0  0  0  0  0  0  0  0  0  0
   -1.0323    0.7500    0.0000 C   0  0  0  0  0  0  0  0  0  0  0  0
   -2.4830    1.1313    0.0000 C   0  0  0  0  0  0  0  0  0  0  0  0
   -3.4973    2.2364    0.0000 C   0  0  0  0  0  0  0  0  0  0  0  0
  1  2  1  0
  2  3  2  0
  3  4  1  0
  4  5  2  0
  5  6  1  0
  6  7  2  0
  7  8  1  0
  8  9  2  0
  9 10  1  0
 10 11  2  0
 11 12  1  0
 12 13  2  0
 13 14  1  0
 14 15  2  0
 15  2  1  0
 13  9  1  0
M  END
>  <Title>  (1043) 
idABOCgen8

$$$$

     RDKit          2D

 37 41  0  0  0  0  0  0  0  0999 V2000
    3.0000    0.0000    0.0000 C   0  0  0  0  0  0  0  0  0  0  0  0
    1.5000    0.0000    0.0000 C   0  0  0  0  0  0  0  0  0  0  0  0
    0.7500    1.2990    0.0000 C   0  0  0  0  0  0  0  0  0  0  0  0
   -0.7500    1.2990    0.0000 C   0  0  0  0  0  0  0  0  0  0  0  0
   -1.5000    0.0000    0.0000 C   0  0  0  0  0  0  0  0  0  0  0  0
   -3.0000    0.0000    0.0000 C   0  0  0  0  0  0  0  0  0  0  0  0
   -3.8817   -1.2135    0.0000 C   0  0  0  0  0  0  0  0  0  0  0  0
   -5.3083   -0.7500    0.0000 C   0  0  0  0  0  0  0  0  0  0  0  0
   -5.3083    0.7500    0.0000 C   0  0  0  0  0  0  0  0  0  0  0  0
   -6.5218    1.6317    0.0000 N   0  0  0  0  0  0  0  0  0  0  0  0
   -7.9484    1.1682    0.0000 N   0  0  0  0  0  0  0  0  0  0  0  0
   -8.8301    2.3817    0.0000 N   0  0  0  0  0  0  0  0  0  0  0  0
   -7.9484    3.5952    0.0000 N   0  0  0  0  0  0  0  0  0  0  0  0
   -6.5218    3.1317    0.0000 C   0  0  0  0  0  0  0  0  0  0  0  0
   -5.3083    4.0134    0.0000 N   0  0  0  0  0  0  0  0  0  0  0  0
   -5.4651    5.5051    0.0000 C   0  0  0  0  0  0  0  0  0  0  0  0
   -6.8354    6.1152    0.0000 O   0  0  0  0  0  0  0  0  0  0  0  0
   -4.2515    6.3868    0.0000 C   0  0  0  0  0  0  0  0  0  0  0  0
   -2.8812    5.7767    0.0000 C   0  0  0  0  0  0  0  0  0  0  0  0
   -1.6677    6.6584    0.0000 C   0  0  0  0  0  0  0  0  0  0  0  0
   -1.8245    8.1502    0.0000 C   0  0  0  0  0  0  0  0  0  0  0  0
   -0.6110    9.0319    0.0000 C   0  0  0  0  0  0  0  0  0  0  0  0
   -3.1948    8.7603    0.0000 C   0  0  0  0  0  0  0  0  0  0  0  0
   -3.3516   10.2521    0.0000 O   0  0  0  0  0  0  0  0  0  0  0  0
   -4.4083    7.8786    0.0000 N   0  0  0  0  0  0  0  0  0  0  0  0
   -3.8817    1.2135    0.0000 C   0  0  0  0  0  0  0  0  0  0  0  0
   -3.4182    2.6401    0.0000 O   0  0  0  0  0  0  0  0  0  0  0  0
   -0.7500   -1.2990    0.0000 C   0  0  0  0  0  0  0  0  0  0  0  0
   -1.5000   -2.5981    0.0000 C   0  0  0  0  0  0  0  0  0  0  0  0
   -3.0000   -2.5981    0.0000 C   0  0  0  0  0  0  0  0  0  0  0  0
   -3.7500   -3.8971    0.0000 C   0  0  0  0  0  0  0  0  0  0  0  0
   -3.0000   -5.1962    0.0000 C   0  0  0  0  0  0  0  0  0  0  0  0
   -3.7500   -6.4952    0.0000 C   0  0  0  0  0  0  0  0  0  0  0  0
   -1.5000   -5.1962    0.0000 N   0  0  0  0  0  0  0  0  0  0  0  0
   -0.7500   -3.8971    0.0000 C   0  0  0  0  0  0  0  0  0  0  0  0
    0.7500   -3.8971    0.0000 O   0  0  0  0  0  0  0  0  0  0  0  0
    0.7500   -1.2990    0.0000 C   0  0  0  0  0  0  0  0  0  0  0  0
  1  2  1  0
  2  3  2  0
  3  4  1  0
  4  5  2  0
  5  6  1  0
  6  7  2  0
  7  8  1  0
  8  9  2  0
  9 10  1  0
 10 11  1  0
 11 12  2  0
 12 13  1  0
 13 14  2  0
 14 15  1  0
 15 16  1  0
 16 17  2  0
 16 18  1  0
 18 19  2  0
 19 20  1  0
 20 21  2  0
 21 22  1  0
 21 23  1  0
 23 24  2  0
 23 25  1  0
  9 26  1  0
 26 27  2  0
  5 28  1  0
 28 29  1  0
 29 30  2  0
 30 31  1  0
 31 32  2  0
 32 33  1  0
 32 34  1  0
 34 35  1  0
 35 36  2  0
 28 37  2  0
 37  2  1  0
 26  6  1  0
 35 29  1  0
 14 10  1  0
 25 18  1  0
M  END
>  <Title>  (1044) 
idABODgen8

$$$$

     RDKit          2D

 51 57  0  0  0  0  0  0  0  0999 V2000
  -12.5188    0.5935    0.0000 C   0  0  0  0  0  0  0  0  0  0  0  0
  -11.0639    0.2281    0.0000 C   0  0  0  0  0  0  0  0  0  0  0  0
  -11.0705   -1.2719    0.0000 C   0  0  0  0  0  0  0  0  0  0  0  0
  -10.3793   -2.6031    0.0000 C   0  0  0  0  0  0  0  0  0  0  0  0
   -9.1486   -3.4606    0.0000 C   0  0  0  0  0  0  0  0  0  0  0  0
   -7.6603   -3.6479    0.0000 N   0  0  0  0  0  0  0  0  0  0  0  0
   -6.2555   -3.1222    0.0000 C   0  0  0  0  0  0  0  0  0  0  0  0
   -5.5007   -4.4185    0.0000 N   0  0  0  0  0  0  0  0  0  0  0  0
   -4.0346   -4.1013    0.0000 N   0  0  0  0  0  0  0  0  0  0  0  0
   -3.8833   -2.6089    0.0000 N   0  0  0  0  0  0  0  0  0  0  0  0
   -5.2558   -2.0038    0.0000 N   0  0  0  0  0  0  0  0  0  0  0  0
   -4.8905   -0.5490    0.0000 C   0  0  0  0  0  0  0  0  0  0  0  0
   -5.2431    0.9090    0.0000 C   0  0  0  0  0  0  0  0  0  0  0  0
   -6.2328    2.0361    0.0000 C   0  0  0  0  0  0  0  0  0  0  0  0
   -7.6330    2.5742    0.0000 C   0  0  0  0  0  0  0  0  0  0  0  0
   -9.1228    2.3999    0.0000 N   0  0  0  0  0  0  0  0  0  0  0  0
  -10.3610    1.5532    0.0000 N   0  0  0  0  0  0  0  0  0  0  0  0
   -7.0188    3.9427    0.0000 N   0  0  0  0  0  0  0  0  0  0  0  0
   -5.7623    4.7620    0.0000 C   0  0  0  0  0  0  0  0  0  0  0  0
   -4.2624    4.7718    0.0000 N   0  0  0  0  0  0  0  0  0  0  0  0
   -2.9952    3.9692    0.0000 N   0  0  0  0  0  0  0  0  0  0  0  0
   -2.3631    2.6089    0.0000 N   0  0  0  0  0  0  0  0  0  0  0  0
   -2.5668    1.1228    0.0000 N   0  0  0  0  0  0  0  0  0  0  0  0
   -3.5416   -0.0173    0.0000 N   0  0  0  0  0  0  0  0  0  0  0  0
   -2.7223   -1.2738    0.0000 C   0  0  0  0  0  0  0  0  0  0  0  0
   -3.4008   -2.6115    0.0000 C   0  0  0  0  0  0  0  0  0  0  0  0
   -2.5816   -3.8681    0.0000 C   0  0  0  0  0  0  0  0  0  0  0  0
   -1.0838   -3.7868    0.0000 C   0  0  0  0  0  0  0  0  0  0  0  0
   -0.2645   -5.0433    0.0000 C   0  0  0  0  0  0  0  0  0  0  0  0
    1.2336   -5.1191    0.0000 N   0  0  0  0  0  0  0  0  0  0  0  0
    1.6245   -6.5672    0.0000 N   0  0  0  0  0  0  0  0  0  0  0  0
    0.3679   -7.3865    0.0000 N   0  0  0  0  0  0  0  0  0  0  0  0
   -0.7995   -6.4447    0.0000 N   0  0  0  0  0  0  0  0  0  0  0  0
   -2.2477   -6.8355    0.0000 C   0  0  0  0  0  0  0  0  0  0  0  0
   -3.3103   -5.7768    0.0000 C   0  0  0  0  0  0  0  0  0  0  0  0
   -4.7585   -6.1677    0.0000 C   0  0  0  0  0  0  0  0  0  0  0  0
   -5.1440   -7.6173    0.0000 C   0  0  0  0  0  0  0  0  0  0  0  0
   -4.0814   -8.6760    0.0000 C   0  0  0  0  0  0  0  0  0  0  0  0
   -2.6333   -8.2851    0.0000 C   0  0  0  0  0  0  0  0  0  0  0  0
   -0.4052   -2.4490    0.0000 C   0  0  0  0  0  0  0  0  0  0  0  0
   -1.2245   -1.1925    0.0000 C   0  0  0  0  0  0  0  0  0  0  0  0
   -0.5460    0.1452    0.0000 C   0  0  0  0  0  0  0  0  0  0  0  0
    0.9518    0.2265    0.0000 C   0  0  0  0  0  0  0  0  0  0  0  0
    1.6304    1.5642    0.0000 C   0  0  0  0  0  0  0  0  0  0  0  0
    0.8111    2.8207    0.0000 C   0  0  0  0  0  0  0  0  0  0  0  0
    1.4897    4.1585    0.0000 C   0  0  0  0  0  0  0  0  0  0  0  0
    0.6704    5.4150    0.0000 O   0  0  0  0  0  0  0  0  0  0  0  0
    2.9875    4.2397    0.0000 N   0  0  0  0  0  0  0  0  0  0  0  0
    3.6660    5.5775    0.0000 O   0  0  0  0  0  0  0  0  0  0  0  0
   -0.6867    2.7395    0.0000 C   0  0  0  0  0  0  0  0  0  0  0  0
   -1.3652    1.4017    0.0000 C   0  0  0  0  0  0  0  0  0  0  0  0
  1  2  1  0
  2  3  2  0
  3  4  1  0
  4  5  2  0
  5  6  2  0
  6  7  1  0
  7  8  2  0
  8  9  1  0
  9 10  2  0
 10 11  1  0
 11 12  1  0
 12 13  2  0
 13 14  1  0
 14 15  2  0
 15 16  1  0
 16 17  2  0
 15 18  1  0
 18 19  1  0
 19 20  1  0
 20 21  2  0
 21 22  1  0
 22 23  2  0
 23 24  1  0
 24 25  1  0
 25 26  2  0
 26 27  1  0
 27 28  2  0
 28 29  1  0
 29 30  2  0
 30 31  1  0
 31 32  2  0
 32 33  1  0
 33 34  1  0
 34 35  2  0
 35 36  1  0
 36 37  2  0
 37 38  1  0
 38 39  2  0
 28 40  1  0
 40 41  2  0
 41 42  1  0
 42 43  2  0
 43 44  1  0
 44 45  2  0
 45 46  1  0
 46 47  2  0
 46 48  1  0
 48 49  1  0
 45 50  1  0
 50 51  1  0
 17  2  1  0
 41 25  1  0
 51 42  1  0
 11  7  1  0
 24 12  1  0
 33 29  1  0
 39 34  1  0
M  END
>  <Title>  (1045) 
idABOEgen8

$$$$

     RDKit          2D

 42 47  0  0  0  0  0  0  0  0999 V2000
    3.0000    0.0000    0.0000 C   0  0  0  0  0  0  0  0  0  0  0  0
    1.5000    0.0000    0.0000 C   0  0  0  0  0  0  0  0  0  0  0  0
    0.7500   -1.2990    0.0000 C   0  0  0  0  0  0  0  0  0  0  0  0
   -0.7500   -1.2990    0.0000 C   0  0  0  0  0  0  0  0  0  0  0  0
   -1.5000    0.0000    0.0000 C   0  0  0  0  0  0  0  0  0  0  0  0
   -3.0000    0.0000    0.0000 C   0  0  0  0  0  0  0  0  0  0  0  0
   -3.8817   -1.2135    0.0000 N   0  0  0  0  0  0  0  0  0  0  0  0
   -5.3083   -0.7500    0.0000 N   0  0  0  0  0  0  0  0  0  0  0  0
   -5.3083    0.7500    0.0000 N   0  0  0  0  0  0  0  0  0  0  0  0
   -3.8817    1.2135    0.0000 N   0  0  0  0  0  0  0  0  0  0  0  0
   -3.4182    2.6401    0.0000 C   0  0  0  0  0  0  0  0  0  0  0  0
   -4.2998    3.8536    0.0000 C   0  0  0  0  0  0  0  0  0  0  0  0
   -3.4182    5.0672    0.0000 C   0  0  0  0  0  0  0  0  0  0  0  0
   -1.9916    4.6036    0.0000 C   0  0  0  0  0  0  0  0  0  0  0  0
   -0.7780    5.4853    0.0000 C   0  0  0  0  0  0  0  0  0  0  0  0
   -0.9348    6.9771    0.0000 O   0  0  0  0  0  0  0  0  0  0  0  0
    0.5923    4.8752    0.0000 N   0  0  0  0  0  0  0  0  0  0  0  0
    1.8058    5.7569    0.0000 C   0  0  0  0  0  0  0  0  0  0  0  0
    1.8058    7.2569    0.0000 N   0  0  0  0  0  0  0  0  0  0  0  0
    3.2324    7.7204    0.0000 N   0  0  0  0  0  0  0  0  0  0  0  0
    4.1141    6.5069    0.0000 N   0  0  0  0  0  0  0  0  0  0  0  0
    3.2324    5.2934    0.0000 N   0  0  0  0  0  0  0  0  0  0  0  0
    3.6959    3.8668    0.0000 C   0  0  0  0  0  0  0  0  0  0  0  0
    2.8142    2.6533    0.0000 N   0  0  0  0  0  0  0  0  0  0  0  0
    3.6959    1.4397    0.0000 N   0  0  0  0  0  0  0  0  0  0  0  0
    5.1225    1.9033    0.0000 N   0  0  0  0  0  0  0  0  0  0  0  0
    5.1225    3.4033    0.0000 N   0  0  0  0  0  0  0  0  0  0  0  0
    6.3360    4.2849    0.0000 C   0  0  0  0  0  0  0  0  0  0  0  0
    6.1792    5.7767    0.0000 C   0  0  0  0  0  0  0  0  0  0  0  0
    7.3928    6.6584    0.0000 C   0  0  0  0  0  0  0  0  0  0  0  0
    8.7631    6.0483    0.0000 C   0  0  0  0  0  0  0  0  0  0  0  0
    9.9766    6.9300    0.0000 C   0  0  0  0  0  0  0  0  0  0  0  0
   11.3469    6.3199    0.0000 O   0  0  0  0  0  0  0  0  0  0  0  0
    9.8198    8.4217    0.0000 N   0  0  0  0  0  0  0  0  0  0  0  0
   11.0333    9.3034    0.0000 O   0  0  0  0  0  0  0  0  0  0  0  0
    8.9199    4.5565    0.0000 N   0  0  0  0  0  0  0  0  0  0  0  0
    7.7063    3.6748    0.0000 C   0  0  0  0  0  0  0  0  0  0  0  0
    7.8631    2.1830    0.0000 O   0  0  0  0  0  0  0  0  0  0  0  0
   -1.9916    3.1036    0.0000 C   0  0  0  0  0  0  0  0  0  0  0  0
   -0.7780    2.2220    0.0000 O   0  0  0  0  0  0  0  0  0  0  0  0
   -0.7500    1.2990    0.0000 C   0  0  0  0  0  0  0  0  0  0  0  0
    0.7500    1.2990    0.0000 C   0  0  0  0  0  0  0  0  0  0  0  0
  1  2  1  0
  2  3  2  0
  3  4  1  0
  4  5  2  0
  5  6  1  0
  6  7  2  0
  7  8  1  0
  8  9  2  0
  9 10  1  0
 10 11  1  0
 11 12  2  0
 12 13  1  0
 13 14  2  0
 14 15  1  0
 15 16  2  0
 15 17  1  0
 17 18  1  0
 18 19  2  0
 19 20  1  0
 20 21  2  0
 21 22  1  0
 22 23  1  0
 23 24  2  0
 24 25  1  0
 25 26  2  0
 26 27  1  0
 27 28  1  0
 28 29  2  0
 29 30  1  0
 30 31  2  0
 31 32  1  0
 32 33  2  0
 32 34  1  0
 34 35  1  0
 31 36  1  0
 36 37  1  0
 37 38  2  0
 14 39  1  0
 39 40  2  0
  5 41  1  0
 41 42  2  0
 42  2  1  0
 10  6  1  0
 39 11  1  0
 22 18  1  0
 27 23  1  0
 37 28  1  0
M  END
>  <Title>  (1046) 
idABOFgen8

$$$$

     RDKit          2D

 53 60  0  0  0  0  0  0  0  0999 V2000
    2.5985   -2.8023    0.0000 C   0  0  0  0  0  0  0  0  0  0  0  0
    1.7351   -4.0289    0.0000 C   0  0  0  0  0  0  0  0  0  0  0  0
    2.3656   -5.3899    0.0000 C   0  0  0  0  0  0  0  0  0  0  0  0
    1.5022   -6.6165    0.0000 C   0  0  0  0  0  0  0  0  0  0  0  0
    0.0082   -6.4820    0.0000 C   0  0  0  0  0  0  0  0  0  0  0  0
   -0.8552   -7.7086    0.0000 C   0  0  0  0  0  0  0  0  0  0  0  0
   -0.2247   -9.0697    0.0000 O   0  0  0  0  0  0  0  0  0  0  0  0
   -2.3492   -7.5742    0.0000 N   0  0  0  0  0  0  0  0  0  0  0  0
   -3.2126   -8.8007    0.0000 C   0  0  0  0  0  0  0  0  0  0  0  0
   -2.7278  -10.2202    0.0000 N   0  0  0  0  0  0  0  0  0  0  0  0
   -3.9280  -11.1200    0.0000 N   0  0  0  0  0  0  0  0  0  0  0  0
   -5.1546  -10.2565    0.0000 N   0  0  0  0  0  0  0  0  0  0  0  0
   -4.7124   -8.8232    0.0000 N   0  0  0  0  0  0  0  0  0  0  0  0
   -5.6122   -7.6230    0.0000 C   0  0  0  0  0  0  0  0  0  0  0  0
   -7.1120   -7.6454    0.0000 C   0  0  0  0  0  0  0  0  0  0  0  0
   -7.5968   -6.2259    0.0000 C   0  0  0  0  0  0  0  0  0  0  0  0
   -6.3966   -5.3262    0.0000 C   0  0  0  0  0  0  0  0  0  0  0  0
   -6.4191   -3.8264    0.0000 C   0  0  0  0  0  0  0  0  0  0  0  0
   -7.7292   -3.0959    0.0000 O   0  0  0  0  0  0  0  0  0  0  0  0
   -5.1314   -3.0570    0.0000 N   0  0  0  0  0  0  0  0  0  0  0  0
   -5.1538   -1.5572    0.0000 C   0  0  0  0  0  0  0  0  0  0  0  0
   -6.3804   -0.6938    0.0000 N   0  0  0  0  0  0  0  0  0  0  0  0
   -5.9383    0.7396    0.0000 N   0  0  0  0  0  0  0  0  0  0  0  0
   -4.4384    0.7620    0.0000 N   0  0  0  0  0  0  0  0  0  0  0  0
   -3.9536   -0.6574    0.0000 N   0  0  0  0  0  0  0  0  0  0  0  0
   -2.5203   -1.0996    0.0000 C   0  0  0  0  0  0  0  0  0  0  0  0
   -1.5000    0.0000    0.0000 C   0  0  0  0  0  0  0  0  0  0  0  0
   -0.0042   -0.1121    0.0000 C   0  0  0  0  0  0  0  0  0  0  0  0
    0.8408   -1.3515    0.0000 C   0  0  0  0  0  0  0  0  0  0  0  0
    2.3240   -1.1279    0.0000 N   0  0  0  0  0  0  0  0  0  0  0  0
    2.8720    0.2684    0.0000 C   0  0  0  0  0  0  0  0  0  0  0  0
    2.0645    1.5325    0.0000 N   0  0  0  0  0  0  0  0  0  0  0  0
    3.0172    2.6911    0.0000 N   0  0  0  0  0  0  0  0  0  0  0  0
    4.4135    2.1431    0.0000 N   0  0  0  0  0  0  0  0  0  0  0  0
    4.3238    0.6458    0.0000 N   0  0  0  0  0  0  0  0  0  0  0  0
    5.4824   -0.3069    0.0000 C   0  0  0  0  0  0  0  0  0  0  0  0
    5.2367   -1.7866    0.0000 C   0  0  0  0  0  0  0  0  0  0  0  0
    6.3953   -2.7393    0.0000 C   0  0  0  0  0  0  0  0  0  0  0  0
    7.7997   -2.2122    0.0000 C   0  0  0  0  0  0  0  0  0  0  0  0
    8.0454   -0.7325    0.0000 N   0  0  0  0  0  0  0  0  0  0  0  0
    6.8868    0.2202    0.0000 C   0  0  0  0  0  0  0  0  0  0  0  0
    0.2941   -2.7770    0.0000 C   0  0  0  0  0  0  0  0  0  0  0  0
    0.1820   -4.2728    0.0000 N   0  0  0  0  0  0  0  0  0  0  0  0
   -1.1694   -4.9236    0.0000 N   0  0  0  0  0  0  0  0  0  0  0  0
   -2.4088   -4.0786    0.0000 N   0  0  0  0  0  0  0  0  0  0  0  0
   -2.2967   -2.5828    0.0000 N   0  0  0  0  0  0  0  0  0  0  0  0
   -0.9452   -1.9320    0.0000 C   0  0  0  0  0  0  0  0  0  0  0  0
   -0.5640   -0.7784    0.0000 O   0  0  0  0  0  0  0  0  0  0  0  0
   -5.1700   -6.1896    0.0000 C   0  0  0  0  0  0  0  0  0  0  0  0
   -3.7505   -5.7048    0.0000 O   0  0  0  0  0  0  0  0  0  0  0  0
   -0.6223   -5.1210    0.0000 C   0  0  0  0  0  0  0  0  0  0  0  0
   -2.1163   -4.9865    0.0000 O   0  0  0  0  0  0  0  0  0  0  0  0
    0.2411   -3.8944    0.0000 N   0  0  0  0  0  0  0  0  0  0  0  0
  1  2  1  0
  2  3  2  0
  3  4  1  0
  4  5  2  0
  5  6  1  0
  6  7  2  0
  6  8  1  0
  8  9  1  0
  9 10  2  0
 10 11  1  0
 11 12  2  0
 12 13  1  0
 13 14  1  0
 14 15  2  0
 15 16  1  0
 16 17  2  0
 17 18  1  0
 18 19  2  0
 18 20  1  0
 20 21  1  0
 21 22  2  0
 22 23  1  0
 23 24  2  0
 24 25  1  0
 25 26  1  0
 26 27  2  0
 27 28  1  0
 28 29  2  0
 29 30  1  0
 30 31  1  0
 31 32  2  0
 32 33  1  0
 33 34  2  0
 34 35  1  0
 35 36  1  0
 36 37  2  0
 37 38  1  0
 38 39  2  0
 39 40  1  0
 40 41  2  0
 29 42  1  0
 42 43  2  0
 43 44  1  0
 44 45  2  0
 45 46  1  0
 46 47  1  0
 47 48  2  0
 17 49  1  0
 49 50  2  0
  5 51  1  0
 51 52  2  0
 51 53  1  0
 53  2  1  0
 13  9  1  0
 49 14  1  0
 25 21  1  0
 46 26  1  0
 35 31  1  0
 41 36  1  0
 47 42  1  0
M  END
>  <Title>  (1047) 
idABOGgen8

$$$$

     RDKit          2D

 11 11  0  0  0  0  0  0  0  0999 V2000
    5.4786   -1.2990    0.0000 C   0  0  0  0  0  0  0  0  0  0  0  0
    3.9786   -1.2990    0.0000 C   0  0  0  0  0  0  0  0  0  0  0  0
    3.2286   -2.5981    0.0000 O   0  0  0  0  0  0  0  0  0  0  0  0
    3.2286   -0.0000    0.0000 O   0  0  0  0  0  0  0  0  0  0  0  0
    1.7286    0.0000    0.0000 C   0  0  0  0  0  0  0  0  0  0  0  0
    1.0777    1.3515    0.0000 C   0  0  0  0  0  0  0  0  0  0  0  0
   -0.3846    1.6852    0.0000 C   0  0  0  0  0  0  0  0  0  0  0  0
   -1.5574    0.7500    0.0000 C   0  0  0  0  0  0  0  0  0  0  0  0
   -1.5574   -0.7500    0.0000 C   0  0  0  0  0  0  0  0  0  0  0  0
   -0.3846   -1.6852    0.0000 C   0  0  0  0  0  0  0  0  0  0  0  0
    1.0777   -1.3515    0.0000 C   0  0  0  0  0  0  0  0  0  0  0  0
  1  2  1  0
  2  3  2  0
  2  4  1  0
  4  5  1  0
  5  6  2  0
  6  7  1  0
  7  8  2  0
  8  9  1  0
  9 10  2  0
 10 11  1  0
 11  5  1  0
M  END
>  <Title>  (1048) 
idABOHgen8

$$$$

     RDKit          2D

 57 64  0  0  0  0  0  0  0  0999 V2000
  -12.0459   -1.5716    0.0000 C   0  0  0  0  0  0  0  0  0  0  0  0
  -11.0093   -0.4874    0.0000 O   0  0  0  0  0  0  0  0  0  0  0  0
   -9.5521   -0.8430    0.0000 C   0  0  0  0  0  0  0  0  0  0  0  0
   -9.1314   -2.2828    0.0000 C   0  0  0  0  0  0  0  0  0  0  0  0
   -7.6742   -2.6384    0.0000 C   0  0  0  0  0  0  0  0  0  0  0  0
   -6.6376   -1.5542    0.0000 C   0  0  0  0  0  0  0  0  0  0  0  0
   -5.1804   -1.9099    0.0000 C   0  0  0  0  0  0  0  0  0  0  0  0
   -4.6115   -3.2978    0.0000 N   0  0  0  0  0  0  0  0  0  0  0  0
   -3.1157   -3.1857    0.0000 N   0  0  0  0  0  0  0  0  0  0  0  0
   -2.7601   -1.7285    0.0000 N   0  0  0  0  0  0  0  0  0  0  0  0
   -4.0361   -0.9400    0.0000 N   0  0  0  0  0  0  0  0  0  0  0  0
   -4.1482    0.5558    0.0000 C   0  0  0  0  0  0  0  0  0  0  0  0
   -5.4997    1.2067    0.0000 C   0  0  0  0  0  0  0  0  0  0  0  0
   -5.6118    2.7025    0.0000 C   0  0  0  0  0  0  0  0  0  0  0  0
   -4.3724    3.5475    0.0000 C   0  0  0  0  0  0  0  0  0  0  0  0
   -3.0209    2.8966    0.0000 C   0  0  0  0  0  0  0  0  0  0  0  0
   -2.9088    1.4008    0.0000 C   0  0  0  0  0  0  0  0  0  0  0  0
   -1.5574    0.7500    0.0000 C   0  0  0  0  0  0  0  0  0  0  0  0
   -1.5574   -0.7500    0.0000 C   0  0  0  0  0  0  0  0  0  0  0  0
   -0.3846   -1.6852    0.0000 C   0  0  0  0  0  0  0  0  0  0  0  0
    1.0777   -1.3515    0.0000 N   0  0  0  0  0  0  0  0  0  0  0  0
    1.7286    0.0000    0.0000 N   0  0  0  0  0  0  0  0  0  0  0  0
    1.0777    1.3515    0.0000 N   0  0  0  0  0  0  0  0  0  0  0  0
   -0.3846    1.6852    0.0000 N   0  0  0  0  0  0  0  0  0  0  0  0
   -0.7184    3.1476    0.0000 C   0  0  0  0  0  0  0  0  0  0  0  0
   -2.0977    3.7372    0.0000 N   0  0  0  0  0  0  0  0  0  0  0  0
   -1.9633    5.2311    0.0000 N   0  0  0  0  0  0  0  0  0  0  0  0
   -0.5009    5.5649    0.0000 N   0  0  0  0  0  0  0  0  0  0  0  0
    0.2685    4.2772    0.0000 N   0  0  0  0  0  0  0  0  0  0  0  0
    1.7624    4.1428    0.0000 C   0  0  0  0  0  0  0  0  0  0  0  0
    2.3930    2.7817    0.0000 C   0  0  0  0  0  0  0  0  0  0  0  0
    3.8869    2.6473    0.0000 C   0  0  0  0  0  0  0  0  0  0  0  0
    4.7504    3.8739    0.0000 C   0  0  0  0  0  0  0  0  0  0  0  0
    6.2443    3.7394    0.0000 C   0  0  0  0  0  0  0  0  0  0  0  0
    6.8749    2.3784    0.0000 C   0  0  0  0  0  0  0  0  0  0  0  0
    8.3688    2.2439    0.0000 C   0  0  0  0  0  0  0  0  0  0  0  0
    9.2323    3.4705    0.0000 C   0  0  0  0  0  0  0  0  0  0  0  0
   10.7262    3.3360    0.0000 C   0  0  0  0  0  0  0  0  0  0  0  0
   11.5896    4.5626    0.0000 O   0  0  0  0  0  0  0  0  0  0  0  0
   11.3567    1.9750    0.0000 N   0  0  0  0  0  0  0  0  0  0  0  0
   12.8507    1.8405    0.0000 O   0  0  0  0  0  0  0  0  0  0  0  0
    8.6017    4.8315    0.0000 C   0  0  0  0  0  0  0  0  0  0  0  0
    7.1078    4.9660    0.0000 C   0  0  0  0  0  0  0  0  0  0  0  0
    4.1198    5.2349    0.0000 C   0  0  0  0  0  0  0  0  0  0  0  0
    2.6259    5.3694    0.0000 C   0  0  0  0  0  0  0  0  0  0  0  0
    1.9953    6.7304    0.0000 C   0  0  0  0  0  0  0  0  0  0  0  0
    2.8588    7.9570    0.0000 C   0  0  0  0  0  0  0  0  0  0  0  0
    2.2282    9.3180    0.0000 C   0  0  0  0  0  0  0  0  0  0  0  0
    0.7343    9.4525    0.0000 C   0  0  0  0  0  0  0  0  0  0  0  0
    0.1037   10.8135    0.0000 C   0  0  0  0  0  0  0  0  0  0  0  0
   -1.3902   10.9480    0.0000 O   0  0  0  0  0  0  0  0  0  0  0  0
    0.9672   12.0401    0.0000 N   0  0  0  0  0  0  0  0  0  0  0  0
    0.3366   13.4011    0.0000 O   0  0  0  0  0  0  0  0  0  0  0  0
   -0.1292    8.2259    0.0000 C   0  0  0  0  0  0  0  0  0  0  0  0
    0.5014    6.8649    0.0000 C   0  0  0  0  0  0  0  0  0  0  0  0
   -7.0582   -0.1144    0.0000 C   0  0  0  0  0  0  0  0  0  0  0  0
   -8.5155    0.2412    0.0000 C   0  0  0  0  0  0  0  0  0  0  0  0
  1  2  1  0
  2  3  1  0
  3  4  2  0
  4  5  1  0
  5  6  2  0
  6  7  1  0
  7  8  2  0
  8  9  1  0
  9 10  2  0
 10 11  1  0
 11 12  1  0
 12 13  1  0
 13 14  1  0
 14 15  1  0
 15 16  1  0
 16 17  1  0
 17 18  1  0
 18 19  2  0
 19 20  1  0
 20 21  2  0
 21 22  1  0
 22 23  2  0
 23 24  1  0
 24 25  1  0
 25 26  2  0
 26 27  1  0
 27 28  2  0
 28 29  1  0
 29 30  1  0
 30 31  2  0
 31 32  1  0
 32 33  2  0
 33 34  1  0
 34 35  2  0
 35 36  1  0
 36 37  2  0
 37 38  1  0
 38 39  2  0
 38 40  1  0
 40 41  1  0
 37 42  1  0
 42 43  1  0
 33 44  1  0
 44 45  2  0
 45 46  1  0
 46 47  2  0
 47 48  1  0
 48 49  2  0
 49 50  1  0
 50 51  2  0
 50 52  1  0
 52 53  1  0
 49 54  1  0
 54 55  1  0
  6 56  1  0
 56 57  2  0
 57  3  1  0
 11  7  1  0
 17 12  1  0
 24 18  1  0
 29 25  1  0
 45 30  1  0
 55 46  1  0
 43 34  1  0
M  END
>  <Title>  (1049) 
idABOIgen8

$$$$

     RDKit          2D

 41 47  0  0  0  0  0  0  0  0999 V2000
   -2.0180   11.4711    0.0000 C   0  0  0  0  0  0  0  0  0  0  0  0
   -0.8045   10.5894    0.0000 C   0  0  0  0  0  0  0  0  0  0  0  0
   -1.0723    9.1135    0.0000 C   0  0  0  0  0  0  0  0  0  0  0  0
   -0.0854    7.9839    0.0000 C   0  0  0  0  0  0  0  0  0  0  0  0
    1.4131    8.0512    0.0000 C   0  0  0  0  0  0  0  0  0  0  0  0
    2.1239    6.7303    0.0000 C   0  0  0  0  0  0  0  0  0  0  0  0
    3.6103    6.5290    0.0000 N   0  0  0  0  0  0  0  0  0  0  0  0
    3.8781    5.0531    0.0000 N   0  0  0  0  0  0  0  0  0  0  0  0
    2.5573    4.3423    0.0000 N   0  0  0  0  0  0  0  0  0  0  0  0
    1.4731    5.3789    0.0000 N   0  0  0  0  0  0  0  0  0  0  0  0
   -0.0028    5.1110    0.0000 C   0  0  0  0  0  0  0  0  0  0  0  0
   -1.0870    6.1476    0.0000 N   0  0  0  0  0  0  0  0  0  0  0  0
   -2.4079    5.4368    0.0000 N   0  0  0  0  0  0  0  0  0  0  0  0
   -2.1401    3.9609    0.0000 N   0  0  0  0  0  0  0  0  0  0  0  0
   -0.6537    3.7596    0.0000 N   0  0  0  0  0  0  0  0  0  0  0  0
    0.0571    2.4387    0.0000 C   0  0  0  0  0  0  0  0  0  0  0  0
    1.5436    2.2373    0.0000 C   0  0  0  0  0  0  0  0  0  0  0  0
    1.8114    0.7614    0.0000 C   0  0  0  0  0  0  0  0  0  0  0  0
    0.4905    0.0506    0.0000 C   0  0  0  0  0  0  0  0  0  0  0  0
    0.2892   -1.4358    0.0000 C   0  0  0  0  0  0  0  0  0  0  0  0
   -1.0317   -2.1466    0.0000 N   0  0  0  0  0  0  0  0  0  0  0  0
   -0.7639   -3.6225    0.0000 N   0  0  0  0  0  0  0  0  0  0  0  0
    0.7225   -3.8239    0.0000 N   0  0  0  0  0  0  0  0  0  0  0  0
    1.3734   -2.4724    0.0000 N   0  0  0  0  0  0  0  0  0  0  0  0
    2.8492   -2.2046    0.0000 C   0  0  0  0  0  0  0  0  0  0  0  0
    3.3552   -0.7925    0.0000 C   0  0  0  0  0  0  0  0  0  0  0  0
    4.8311   -0.5246    0.0000 C   0  0  0  0  0  0  0  0  0  0  0  0
    5.8010   -1.6689    0.0000 C   0  0  0  0  0  0  0  0  0  0  0  0
    7.2769   -1.4011    0.0000 C   0  0  0  0  0  0  0  0  0  0  0  0
    7.7829    0.0110    0.0000 C   0  0  0  0  0  0  0  0  0  0  0  0
    9.2588    0.2789    0.0000 C   0  0  0  0  0  0  0  0  0  0  0  0
   10.2287   -0.8654    0.0000 C   0  0  0  0  0  0  0  0  0  0  0  0
    9.7227   -2.2775    0.0000 C   0  0  0  0  0  0  0  0  0  0  0  0
    8.2468   -2.5453    0.0000 C   0  0  0  0  0  0  0  0  0  0  0  0
    5.2950   -3.0810    0.0000 C   0  0  0  0  0  0  0  0  0  0  0  0
    3.8191   -3.3488    0.0000 C   0  0  0  0  0  0  0  0  0  0  0  0
   -0.5937    1.0872    0.0000 C   0  0  0  0  0  0  0  0  0  0  0  0
   -2.0696    0.8194    0.0000 O   0  0  0  0  0  0  0  0  0  0  0  0
    2.2948    9.2647    0.0000 N   0  0  0  0  0  0  0  0  0  0  0  0
    1.8957   10.7107    0.0000 C   0  0  0  0  0  0  0  0  0  0  0  0
    0.5164   11.3002    0.0000 C   0  0  0  0  0  0  0  0  0  0  0  0
  1  2  1  0
  2  3  2  0
  3  4  1  0
  4  5  2  0
  5  6  1  0
  6  7  2  0
  7  8  1  0
  8  9  2  0
  9 10  1  0
 10 11  1  0
 11 12  1  0
 12 13  1  0
 13 14  2  0
 14 15  1  0
 15 16  1  0
 16 17  2  0
 17 18  1  0
 18 19  2  0
 19 20  1  0
 20 21  2  0
 21 22  1  0
 22 23  2  0
 23 24  1  0
 24 25  1  0
 25 26  2  0
 26 27  1  0
 27 28  2  0
 28 29  1  0
 29 30  2  0
 30 31  1  0
 31 32  2  0
 32 33  1  0
 33 34  2  0
 28 35  1  0
 35 36  2  0
 19 37  1  0
 37 38  2  0
  5 39  1  0
 39 40  1  0
 40 41  1  0
 41  2  1  0
 10  6  1  0
 15 11  1  0
 37 16  1  0
 24 20  1  0
 36 25  1  0
 34 29  1  0
M  END
>  <Title>  (1050) 
idABOJgen8

$$$$

     RDKit          2D

 60 68  0  0  0  0  0  0  0  0999 V2000
   -5.8707   -0.5575    0.0000 C   0  0  0  0  0  0  0  0  0  0  0  0
   -4.8670   -1.6722    0.0000 C   0  0  0  0  0  0  0  0  0  0  0  0
   -3.3752   -1.5154    0.0000 C   0  0  0  0  0  0  0  0  0  0  0  0
   -2.7651   -2.8858    0.0000 C   0  0  0  0  0  0  0  0  0  0  0  0
   -3.8798   -3.8895    0.0000 C   0  0  0  0  0  0  0  0  0  0  0  0
   -3.7230   -5.3812    0.0000 C   0  0  0  0  0  0  0  0  0  0  0  0
   -4.8377   -6.3849    0.0000 N   0  0  0  0  0  0  0  0  0  0  0  0
   -4.2276   -7.7552    0.0000 N   0  0  0  0  0  0  0  0  0  0  0  0
   -2.7358   -7.5985    0.0000 N   0  0  0  0  0  0  0  0  0  0  0  0
   -2.4240   -6.1312    0.0000 N   0  0  0  0  0  0  0  0  0  0  0  0
   -1.0537   -5.5211    0.0000 C   0  0  0  0  0  0  0  0  0  0  0  0
   -0.7418   -4.0539    0.0000 N   0  0  0  0  0  0  0  0  0  0  0  0
    0.7500   -3.8971    0.0000 C   0  0  0  0  0  0  0  0  0  0  0  0
    1.5000   -2.5981    0.0000 C   0  0  0  0  0  0  0  0  0  0  0  0
    0.7500   -1.2990    0.0000 N   0  0  0  0  0  0  0  0  0  0  0  0
    1.5000    0.0000    0.0000 C   0  0  0  0  0  0  0  0  0  0  0  0
    0.7500    1.2990    0.0000 C   0  0  0  0  0  0  0  0  0  0  0  0
   -0.7500    1.2990    0.0000 C   0  0  0  0  0  0  0  0  0  0  0  0
   -1.5000    0.0000    0.0000 C   0  0  0  0  0  0  0  0  0  0  0  0
   -0.7500   -1.2990    0.0000 C   0  0  0  0  0  0  0  0  0  0  0  0
    1.3601   -5.2674    0.0000 C   0  0  0  0  0  0  0  0  0  0  0  0
    0.2454   -6.2711    0.0000 C   0  0  0  0  0  0  0  0  0  0  0  0
    0.4022   -7.7629    0.0000 C   0  0  0  0  0  0  0  0  0  0  0  0
   -0.8113   -8.6446    0.0000 C   0  0  0  0  0  0  0  0  0  0  0  0
   -0.6546  -10.1364    0.0000 C   0  0  0  0  0  0  0  0  0  0  0  0
    0.7158  -10.7465    0.0000 C   0  0  0  0  0  0  0  0  0  0  0  0
    0.8726  -12.2383    0.0000 C   0  0  0  0  0  0  0  0  0  0  0  0
   -0.3410  -13.1199    0.0000 N   0  0  0  0  0  0  0  0  0  0  0  0
   -0.1842  -14.6117    0.0000 C   0  0  0  0  0  0  0  0  0  0  0  0
    1.1861  -15.2218    0.0000 O   0  0  0  0  0  0  0  0  0  0  0  0
   -1.3977  -15.4934    0.0000 C   0  0  0  0  0  0  0  0  0  0  0  0
   -2.8243  -15.0299    0.0000 N   0  0  0  0  0  0  0  0  0  0  0  0
   -3.7060  -16.2434    0.0000 N   0  0  0  0  0  0  0  0  0  0  0  0
   -2.8243  -17.4569    0.0000 N   0  0  0  0  0  0  0  0  0  0  0  0
   -1.3977  -16.9934    0.0000 N   0  0  0  0  0  0  0  0  0  0  0  0
   -0.1842  -17.8751    0.0000 C   0  0  0  0  0  0  0  0  0  0  0  0
    1.1861  -17.2650    0.0000 C   0  0  0  0  0  0  0  0  0  0  0  0
    2.3997  -18.1466    0.0000 C   0  0  0  0  0  0  0  0  0  0  0  0
    2.2429  -19.6384    0.0000 C   0  0  0  0  0  0  0  0  0  0  0  0
    0.8726  -20.2485    0.0000 C   0  0  0  0  0  0  0  0  0  0  0  0
   -0.3410  -19.3669    0.0000 C   0  0  0  0  0  0  0  0  0  0  0  0
    1.9293   -9.8648    0.0000 C   0  0  0  0  0  0  0  0  0  0  0  0
    1.7725   -8.3730    0.0000 C   0  0  0  0  0  0  0  0  0  0  0  0
    2.9860   -7.4913    0.0000 C   0  0  0  0  0  0  0  0  0  0  0  0
    2.9860   -5.9913    0.0000 C   0  0  0  0  0  0  0  0  0  0  0  0
    4.4126   -5.5278    0.0000 N   0  0  0  0  0  0  0  0  0  0  0  0
    5.2943   -6.7413    0.0000 N   0  0  0  0  0  0  0  0  0  0  0  0
    4.4126   -7.9549    0.0000 N   0  0  0  0  0  0  0  0  0  0  0  0
    4.8761   -9.3814    0.0000 C   0  0  0  0  0  0  0  0  0  0  0  0
    3.8724  -10.4962    0.0000 C   0  0  0  0  0  0  0  0  0  0  0  0
    4.3360  -11.9228    0.0000 C   0  0  0  0  0  0  0  0  0  0  0  0
    5.8032  -12.2346    0.0000 C   0  0  0  0  0  0  0  0  0  0  0  0
    6.2667  -13.6612    0.0000 C   0  0  0  0  0  0  0  0  0  0  0  0
    5.2630  -14.7759    0.0000 O   0  0  0  0  0  0  0  0  0  0  0  0
    7.7339  -13.9731    0.0000 N   0  0  0  0  0  0  0  0  0  0  0  0
    8.1975  -15.3997    0.0000 O   0  0  0  0  0  0  0  0  0  0  0  0
    6.8069  -11.1199    0.0000 N   0  0  0  0  0  0  0  0  0  0  0  0
    6.3434   -9.6933    0.0000 C   0  0  0  0  0  0  0  0  0  0  0  0
    7.3471   -8.5786    0.0000 O   0  0  0  0  0  0  0  0  0  0  0  0
   -5.1788   -3.1395    0.0000 N   0  0  0  0  0  0  0  0  0  0  0  0
  1  2  1  0
  2  3  2  0
  3  4  1  0
  4  5  2  0
  5  6  1  0
  6  7  2  0
  7  8  1  0
  8  9  2  0
  9 10  1  0
 10 11  1  0
 11 12  1  0
 12 13  1  0
 13 14  1  0
 14 15  1  0
 15 16  1  0
 16 17  1  0
 17 18  1  0
 18 19  1  0
 19 20  1  0
 13 21  1  0
 21 22  2  0
 22 23  1  0
 23 24  2  0
 24 25  1  0
 25 26  2  0
 26 27  1  0
 27 28  1  0
 28 29  1  0
 29 30  2  0
 29 31  1  0
 31 32  2  0
 32 33  1  0
 33 34  2  0
 34 35  1  0
 35 36  1  0
 36 37  2  0
 37 38  1  0
 38 39  2  0
 39 40  1  0
 40 41  2  0
 26 42  1  0
 42 43  2  0
 43 44  1  0
 44 45  2  0
 45 46  1  0
 46 47  2  0
 47 48  1  0
 48 49  1  0
 49 50  2  0
 50 51  1  0
 51 52  2  0
 52 53  1  0
 53 54  2  0
 53 55  1  0
 55 56  1  0
 52 57  1  0
 57 58  1  0
 58 59  2  0
  5 60  1  0
 60  2  1  0
 10  6  1  0
 22 11  1  0
 43 23  1  0
 48 44  1  0
 58 49  1  0
 20 15  1  0
 35 31  1  0
 41 36  1  0
M  END
>  <Title>  (1051) 
idABOKgen8

$$$$

     RDKit          2D

 13 13  0  0  0  0  0  0  0  0999 V2000
    3.9271    0.0000    0.0000 C   0  0  0  0  0  0  0  0  0  0  0  0
    2.4271    0.0000    0.0000 C   0  0  0  0  0  0  0  0  0  0  0  0
    1.9635   -1.4266    0.0000 C   0  0  0  0  0  0  0  0  0  0  0  0
    0.7500   -2.3083    0.0000 C   0  0  0  0  0  0  0  0  0  0  0  0
   -0.7500   -2.3083    0.0000 C   0  0  0  0  0  0  0  0  0  0  0  0
   -1.9635   -1.4266    0.0000 C   0  0  0  0  0  0  0  0  0  0  0  0
   -2.4271    0.0000    0.0000 C   0  0  0  0  0  0  0  0  0  0  0  0
   -3.9271    0.0000    0.0000 O   0  0  0  0  0  0  0  0  0  0  0  0
   -1.9635    1.4266    0.0000 C   0  0  0  0  0  0  0  0  0  0  0  0
   -3.1771    2.3083    0.0000 C   0  0  0  0  0  0  0  0  0  0  0  0
   -0.7500    2.3083    0.0000 C   0  0  0  0  0  0  0  0  0  0  0  0
    0.7500    2.3083    0.0000 C   0  0  0  0  0  0  0  0  0  0  0  0
    1.9635    1.4266    0.0000 C   0  0  0  0  0  0  0  0  0  0  0  0
  1  2  1  0
  2  3  2  0
  3  4  1  0
  4  5  2  0
  5  6  1  0
  6  7  2  0
  7  8  1  0
  7  9  1  0
  9 10  1  0
  9 11  2  0
 11 12  1  0
 12 13  2  0
 13  2  1  0
M  END
>  <Title>  (1052) 
idABOLgen8

$$$$

     RDKit          2D

 14 14  0  0  0  0  0  0  0  0999 V2000
    5.7098   -1.2990    0.0000 C   0  0  0  0  0  0  0  0  0  0  0  0
    4.2098   -1.2990    0.0000 C   0  0  0  0  0  0  0  0  0  0  0  0
    3.4598   -2.5981    0.0000 O   0  0  0  0  0  0  0  0  0  0  0  0
    3.4598   -0.0000    0.0000 O   0  0  0  0  0  0  0  0  0  0  0  0
    1.9598    0.0000    0.0000 C   0  0  0  0  0  0  0  0  0  0  0  0
    1.3858   -1.3858    0.0000 C   0  0  0  0  0  0  0  0  0  0  0  0
   -0.0000   -1.9598    0.0000 C   0  0  0  0  0  0  0  0  0  0  0  0
   -1.3858   -1.3858    0.0000 C   0  0  0  0  0  0  0  0  0  0  0  0
   -1.9598    0.0000    0.0000 C   0  0  0  0  0  0  0  0  0  0  0  0
   -1.3858    1.3858    0.0000 C   0  0  0  0  0  0  0  0  0  0  0  0
   -2.4465    2.4465    0.0000 C   0  0  0  0  0  0  0  0  0  0  0  0
    0.0000    1.9598    0.0000 C   0  0  0  0  0  0  0  0  0  0  0  0
    0.0000    3.4598    0.0000 O   0  0  0  0  0  0  0  0  0  0  0  0
    1.3858    1.3858    0.0000 N   0  0  0  0  0  0  0  0  0  0  0  0
  1  2  1  0
  2  3  2  0
  2  4  1  0
  4  5  1  0
  5  6  2  0
  6  7  1  0
  7  8  2  0
  8  9  1  0
  9 10  2  0
 10 11  1  0
 10 12  1  0
 12 13  2  0
 12 14  1  0
 14  5  1  0
M  END
>  <Title>  (1053) 
idABOMgen8

$$$$

     RDKit          2D

 54 61  0  0  0  0  0  0  0  0999 V2000
    2.0446    9.3221    0.0000 C   0  0  0  0  0  0  0  0  0  0  0  0
    0.8311   10.2038    0.0000 O   0  0  0  0  0  0  0  0  0  0  0  0
   -0.5392    9.5937    0.0000 C   0  0  0  0  0  0  0  0  0  0  0  0
   -0.6960    8.1019    0.0000 C   0  0  0  0  0  0  0  0  0  0  0  0
   -2.0663    7.4918    0.0000 C   0  0  0  0  0  0  0  0  0  0  0  0
   -3.2798    8.3735    0.0000 C   0  0  0  0  0  0  0  0  0  0  0  0
   -4.6502    7.7634    0.0000 C   0  0  0  0  0  0  0  0  0  0  0  0
   -5.9492    8.5134    0.0000 N   0  0  0  0  0  0  0  0  0  0  0  0
   -7.0639    7.5097    0.0000 N   0  0  0  0  0  0  0  0  0  0  0  0
   -6.4538    6.1393    0.0000 N   0  0  0  0  0  0  0  0  0  0  0  0
   -4.9620    6.2961    0.0000 N   0  0  0  0  0  0  0  0  0  0  0  0
   -3.9583    5.1814    0.0000 C   0  0  0  0  0  0  0  0  0  0  0  0
   -2.4911    5.4933    0.0000 C   0  0  0  0  0  0  0  0  0  0  0  0
   -1.4874    4.3786    0.0000 C   0  0  0  0  0  0  0  0  0  0  0  0
   -1.9509    2.9520    0.0000 C   0  0  0  0  0  0  0  0  0  0  0  0
   -3.4182    2.6401    0.0000 C   0  0  0  0  0  0  0  0  0  0  0  0
   -4.4218    3.7548    0.0000 C   0  0  0  0  0  0  0  0  0  0  0  0
   -5.8891    3.4430    0.0000 C   0  0  0  0  0  0  0  0  0  0  0  0
   -6.8928    4.5577    0.0000 C   0  0  0  0  0  0  0  0  0  0  0  0
   -8.3600    4.2458    0.0000 C   0  0  0  0  0  0  0  0  0  0  0  0
   -8.8235    2.8192    0.0000 C   0  0  0  0  0  0  0  0  0  0  0  0
  -10.2907    2.5074    0.0000 C   0  0  0  0  0  0  0  0  0  0  0  0
  -10.9008    1.1370    0.0000 C   0  0  0  0  0  0  0  0  0  0  0  0
  -12.3926    1.2938    0.0000 N   0  0  0  0  0  0  0  0  0  0  0  0
  -12.7045    2.7611    0.0000 N   0  0  0  0  0  0  0  0  0  0  0  0
  -11.4055    3.5111    0.0000 N   0  0  0  0  0  0  0  0  0  0  0  0
  -11.2487    5.0028    0.0000 C   0  0  0  0  0  0  0  0  0  0  0  0
   -9.8783    5.6129    0.0000 C   0  0  0  0  0  0  0  0  0  0  0  0
   -9.7215    7.1047    0.0000 C   0  0  0  0  0  0  0  0  0  0  0  0
  -10.9351    7.9864    0.0000 C   0  0  0  0  0  0  0  0  0  0  0  0
  -12.3054    7.3763    0.0000 C   0  0  0  0  0  0  0  0  0  0  0  0
  -12.4622    5.8845    0.0000 C   0  0  0  0  0  0  0  0  0  0  0  0
   -7.8198    1.7045    0.0000 C   0  0  0  0  0  0  0  0  0  0  0  0
   -6.3526    2.0164    0.0000 C   0  0  0  0  0  0  0  0  0  0  0  0
   -5.3489    0.9017    0.0000 C   0  0  0  0  0  0  0  0  0  0  0  0
   -3.8571    1.0585    0.0000 C   0  0  0  0  0  0  0  0  0  0  0  0
   -3.2470   -0.3119    0.0000 C   0  0  0  0  0  0  0  0  0  0  0  0
   -4.3617   -1.3156    0.0000 C   0  0  0  0  0  0  0  0  0  0  0  0
   -4.2049   -2.8073    0.0000 C   0  0  0  0  0  0  0  0  0  0  0  0
   -5.4185   -3.6890    0.0000 C   0  0  0  0  0  0  0  0  0  0  0  0
   -5.2617   -5.1808    0.0000 C   0  0  0  0  0  0  0  0  0  0  0  0
   -3.8914   -5.7909    0.0000 C   0  0  0  0  0  0  0  0  0  0  0  0
   -3.7346   -7.2827    0.0000 C   0  0  0  0  0  0  0  0  0  0  0  0
   -2.3642   -7.8928    0.0000 O   0  0  0  0  0  0  0  0  0  0  0  0
   -4.9481   -8.1644    0.0000 N   0  0  0  0  0  0  0  0  0  0  0  0
   -4.7913   -9.6562    0.0000 O   0  0  0  0  0  0  0  0  0  0  0  0
   -2.6778   -4.9092    0.0000 N   0  0  0  0  0  0  0  0  0  0  0  0
   -2.8346   -3.4175    0.0000 C   0  0  0  0  0  0  0  0  0  0  0  0
   -1.6211   -2.5358    0.0000 N   0  0  0  0  0  0  0  0  0  0  0  0
   -5.6608   -0.5656    0.0000 C   0  0  0  0  0  0  0  0  0  0  0  0
   -7.0311   -1.1757    0.0000 O   0  0  0  0  0  0  0  0  0  0  0  0
   -3.1230    9.8652    0.0000 C   0  0  0  0  0  0  0  0  0  0  0  0
   -4.3366   10.7469    0.0000 O   0  0  0  0  0  0  0  0  0  0  0  0
   -1.7527   10.4753    0.0000 N   0  0  0  0  0  0  0  0  0  0  0  0
  1  2  1  0
  2  3  1  0
  3  4  2  0
  4  5  1  0
  5  6  2  0
  6  7  1  0
  7  8  2  0
  8  9  1  0
  9 10  2  0
 10 11  1  0
 11 12  1  0
 12 13  1  0
 13 14  1  0
 14 15  1  0
 15 16  1  0
 16 17  1  0
 17 18  1  0
 18 19  2  0
 19 20  1  0
 20 21  2  0
 21 22  1  0
 22 23  2  0
 23 24  1  0
 24 25  2  0
 25 26  1  0
 26 27  1  0
 27 28  2  0
 28 29  1  0
 29 30  2  0
 30 31  1  0
 31 32  2  0
 21 33  1  0
 33 34  2  0
 34 35  1  0
 35 36  2  0
 36 37  1  0
 37 38  2  0
 38 39  1  0
 39 40  2  0
 40 41  1  0
 41 42  2  0
 42 43  1  0
 43 44  2  0
 43 45  1  0
 45 46  1  0
 42 47  1  0
 47 48  1  0
 48 49  2  0
 38 50  1  0
 50 51  2  0
  6 52  1  0
 52 53  2  0
 52 54  1  0
 54  3  1  0
 11  7  1  0
 17 12  1  0
 34 18  1  0
 50 35  1  0
 26 22  1  0
 32 27  1  0
 48 39  1  0
M  END
>  <Title>  (1054) 
idABONgen8

$$$$

     RDKit          2D

 35 39  0  0  0  0  0  0  0  0999 V2000
    4.2098   -1.2990    0.0000 C   0  0  0  0  0  0  0  0  0  0  0  0
    3.4598   -0.0000    0.0000 O   0  0  0  0  0  0  0  0  0  0  0  0
    1.9598    0.0000    0.0000 C   0  0  0  0  0  0  0  0  0  0  0  0
    1.3858   -1.3858    0.0000 C   0  0  0  0  0  0  0  0  0  0  0  0
   -0.0000   -1.9598    0.0000 C   0  0  0  0  0  0  0  0  0  0  0  0
   -1.3858   -1.3858    0.0000 C   0  0  0  0  0  0  0  0  0  0  0  0
   -1.9598    0.0000    0.0000 C   0  0  0  0  0  0  0  0  0  0  0  0
   -1.3858    1.3858    0.0000 C   0  0  0  0  0  0  0  0  0  0  0  0
   -2.4465    2.4465    0.0000 N   0  0  0  0  0  0  0  0  0  0  0  0
   -2.0583    3.8954    0.0000 N   0  0  0  0  0  0  0  0  0  0  0  0
   -3.1189    4.9560    0.0000 N   0  0  0  0  0  0  0  0  0  0  0  0
   -4.5678    4.5678    0.0000 N   0  0  0  0  0  0  0  0  0  0  0  0
   -4.9560    3.1189    0.0000 N   0  0  0  0  0  0  0  0  0  0  0  0
   -3.8954    2.0583    0.0000 N   0  0  0  0  0  0  0  0  0  0  0  0
   -4.2836    0.6094    0.0000 C   0  0  0  0  0  0  0  0  0  0  0  0
   -5.7325    0.2211    0.0000 C   0  0  0  0  0  0  0  0  0  0  0  0
   -6.1207   -1.2278    0.0000 C   0  0  0  0  0  0  0  0  0  0  0  0
   -5.0601   -2.2884    0.0000 C   0  0  0  0  0  0  0  0  0  0  0  0
   -5.4483   -3.7373    0.0000 C   0  0  0  0  0  0  0  0  0  0  0  0
   -6.8972   -4.1255    0.0000 C   0  0  0  0  0  0  0  0  0  0  0  0
   -7.2854   -5.5744    0.0000 C   0  0  0  0  0  0  0  0  0  0  0  0
   -6.2247   -6.6351    0.0000 C   0  0  0  0  0  0  0  0  0  0  0  0
   -4.7759   -6.2469    0.0000 N   0  0  0  0  0  0  0  0  0  0  0  0
   -4.3876   -4.7980    0.0000 C   0  0  0  0  0  0  0  0  0  0  0  0
   -2.9387   -4.4097    0.0000 C   0  0  0  0  0  0  0  0  0  0  0  0
   -1.8781   -5.4704    0.0000 C   0  0  0  0  0  0  0  0  0  0  0  0
   -0.4292   -5.0822    0.0000 C   0  0  0  0  0  0  0  0  0  0  0  0
   -0.0410   -3.6333    0.0000 C   0  0  0  0  0  0  0  0  0  0  0  0
   -1.1016   -2.5726    0.0000 C   0  0  0  0  0  0  0  0  0  0  0  0
   -2.5505   -2.9608    0.0000 C   0  0  0  0  0  0  0  0  0  0  0  0
   -3.6112   -1.9002    0.0000 C   0  0  0  0  0  0  0  0  0  0  0  0
   -3.2229   -0.4513    0.0000 C   0  0  0  0  0  0  0  0  0  0  0  0
    0.0000    1.9598    0.0000 C   0  0  0  0  0  0  0  0  0  0  0  0
    0.0000    3.4598    0.0000 O   0  0  0  0  0  0  0  0  0  0  0  0
    1.3858    1.3858    0.0000 N   0  0  0  0  0  0  0  0  0  0  0  0
  1  2  1  0
  2  3  1  0
  3  4  2  0
  4  5  1  0
  5  6  2  0
  6  7  1  0
  7  8  2  0
  8  9  1  0
  9 10  1  0
 10 11  2  0
 11 12  1  0
 12 13  2  0
 13 14  1  0
 14 15  1  0
 15 16  2  0
 16 17  1  0
 17 18  2  0
 18 19  1  0
 19 20  2  0
 20 21  1  0
 21 22  2  0
 22 23  1  0
 23 24  2  0
 24 25  1  0
 25 26  2  0
 26 27  1  0
 27 28  2  0
 28 29  1  0
 29 30  2  0
 18 31  1  0
 31 32  2  0
  8 33  1  0
 33 34  2  0
 33 35  1  0
 35  3  1  0
 14  9  1  0
 32 15  1  0
 24 19  1  0
 30 25  1  0
M  END
>  <Title>  (1055) 
idABOOgen8

$$$$

     RDKit          2D

 27 30  0  0  0  0  0  0  0  0999 V2000
    3.0000   -5.1962    0.0000 O   0  0  0  0  0  0  0  0  0  0  0  0
    1.5000   -5.1962    0.0000 C   0  0  0  0  0  0  0  0  0  0  0  0
    0.7500   -3.8971    0.0000 N   0  0  0  0  0  0  0  0  0  0  0  0
    1.5000   -2.5981    0.0000 C   0  0  0  0  0  0  0  0  0  0  0  0
    0.7500   -1.2990    0.0000 C   0  0  0  0  0  0  0  0  0  0  0  0
    1.5000    0.0000    0.0000 C   0  0  0  0  0  0  0  0  0  0  0  0
    0.7500    1.2990    0.0000 C   0  0  0  0  0  0  0  0  0  0  0  0
   -0.7500    1.2990    0.0000 C   0  0  0  0  0  0  0  0  0  0  0  0
   -1.5000    2.5981    0.0000 C   0  0  0  0  0  0  0  0  0  0  0  0
   -2.9918    2.7549    0.0000 N   0  0  0  0  0  0  0  0  0  0  0  0
   -3.3037    4.2221    0.0000 N   0  0  0  0  0  0  0  0  0  0  0  0
   -2.0046    4.9721    0.0000 N   0  0  0  0  0  0  0  0  0  0  0  0
   -0.8899    3.9684    0.0000 N   0  0  0  0  0  0  0  0  0  0  0  0
    0.5773    4.2803    0.0000 C   0  0  0  0  0  0  0  0  0  0  0  0
    1.5810    3.1655    0.0000 C   0  0  0  0  0  0  0  0  0  0  0  0
    3.0482    3.4774    0.0000 C   0  0  0  0  0  0  0  0  0  0  0  0
    3.5118    4.9040    0.0000 C   0  0  0  0  0  0  0  0  0  0  0  0
    2.5081    6.0187    0.0000 C   0  0  0  0  0  0  0  0  0  0  0  0
    1.0409    5.7068    0.0000 C   0  0  0  0  0  0  0  0  0  0  0  0
   -1.5000    0.0000    0.0000 C   0  0  0  0  0  0  0  0  0  0  0  0
   -0.7500   -1.2990    0.0000 C   0  0  0  0  0  0  0  0  0  0  0  0
    0.7500   -6.4952    0.0000 C   0  0  0  0  0  0  0  0  0  0  0  0
   -0.7500   -6.4952    0.0000 C   0  0  0  0  0  0  0  0  0  0  0  0
   -1.5000   -7.7942    0.0000 C   0  0  0  0  0  0  0  0  0  0  0  0
   -0.7500   -9.0933    0.0000 C   0  0  0  0  0  0  0  0  0  0  0  0
    0.7500   -9.0933    0.0000 C   0  0  0  0  0  0  0  0  0  0  0  0
    1.5000   -7.7942    0.0000 C   0  0  0  0  0  0  0  0  0  0  0  0
  1  2  2  0
  2  3  1  0
  3  4  1  0
  4  5  1  0
  5  6  2  0
  6  7  1  0
  7  8  2  0
  8  9  1  0
  9 10  2  0
 10 11  1  0
 11 12  2  0
 12 13  1  0
 13 14  1  0
 14 15  2  0
 15 16  1  0
 16 17  2  0
 17 18  1  0
 18 19  2  0
  8 20  1  0
 20 21  2  0
  2 22  1  0
 22 23  2  0
 23 24  1  0
 24 25  2  0
 25 26  1  0
 26 27  2  0
 21  5  1  0
 27 22  1  0
 13  9  1  0
 19 14  1  0
M  END
>  <Title>  (1056) 
idABOPgen8

$$$$

     RDKit          2D

 40 46  0  0  0  0  0  0  0  0999 V2000
   -9.5718    5.8215    0.0000 C   0  0  0  0  0  0  0  0  0  0  0  0
   -8.0885    5.5980    0.0000 C   0  0  0  0  0  0  0  0  0  0  0  0
   -7.3976    4.2666    0.0000 C   0  0  0  0  0  0  0  0  0  0  0  0
   -5.9178    4.5123    0.0000 C   0  0  0  0  0  0  0  0  0  0  0  0
   -5.6943    5.9956    0.0000 C   0  0  0  0  0  0  0  0  0  0  0  0
   -4.3629    6.6865    0.0000 C   0  0  0  0  0  0  0  0  0  0  0  0
   -4.1393    8.1698    0.0000 N   0  0  0  0  0  0  0  0  0  0  0  0
   -2.6596    8.4155    0.0000 N   0  0  0  0  0  0  0  0  0  0  0  0
   -1.9686    7.0841    0.0000 N   0  0  0  0  0  0  0  0  0  0  0  0
   -3.0213    6.0156    0.0000 N   0  0  0  0  0  0  0  0  0  0  0  0
   -2.7756    4.5358    0.0000 C   0  0  0  0  0  0  0  0  0  0  0  0
   -3.9342    3.5831    0.0000 C   0  0  0  0  0  0  0  0  0  0  0  0
   -3.6885    2.1034    0.0000 C   0  0  0  0  0  0  0  0  0  0  0  0
   -2.2841    1.5763    0.0000 C   0  0  0  0  0  0  0  0  0  0  0  0
   -2.4186    3.0703    0.0000 C   0  0  0  0  0  0  0  0  0  0  0  0
   -1.3344    4.1069    0.0000 C   0  0  0  0  0  0  0  0  0  0  0  0
    0.1520    3.9056    0.0000 C   0  0  0  0  0  0  0  0  0  0  0  0
    0.9784    5.1574    0.0000 O   0  0  0  0  0  0  0  0  0  0  0  0
    0.9214    2.6179    0.0000 C   0  0  0  0  0  0  0  0  0  0  0  0
    2.4153    2.7523    0.0000 C   0  0  0  0  0  0  0  0  0  0  0  0
    3.0459    4.1134    0.0000 C   0  0  0  0  0  0  0  0  0  0  0  0
    4.5398    4.2478    0.0000 C   0  0  0  0  0  0  0  0  0  0  0  0
    4.9873    5.6795    0.0000 C   0  0  0  0  0  0  0  0  0  0  0  0
    6.3161    6.3755    0.0000 C   0  0  0  0  0  0  0  0  0  0  0  0
    7.7478    5.9280    0.0000 C   0  0  0  0  0  0  0  0  0  0  0  0
    8.4437    4.5992    0.0000 C   0  0  0  0  0  0  0  0  0  0  0  0
    7.9962    3.1675    0.0000 C   0  0  0  0  0  0  0  0  0  0  0  0
    6.6675    2.4716    0.0000 C   0  0  0  0  0  0  0  0  0  0  0  0
    5.2358    2.9190    0.0000 C   0  0  0  0  0  0  0  0  0  0  0  0
    3.9070    2.2231    0.0000 C   0  0  0  0  0  0  0  0  0  0  0  0
    2.4753    2.6706    0.0000 C   0  0  0  0  0  0  0  0  0  0  0  0
    1.7793    3.9994    0.0000 C   0  0  0  0  0  0  0  0  0  0  0  0
    2.2268    5.4311    0.0000 C   0  0  0  0  0  0  0  0  0  0  0  0
    3.5556    6.1270    0.0000 C   0  0  0  0  0  0  0  0  0  0  0  0
    0.3943    1.2135    0.0000 N   0  0  0  0  0  0  0  0  0  0  0  0
    1.2760    0.0000    0.0000 N   0  0  0  0  0  0  0  0  0  0  0  0
    0.3943   -1.2135    0.0000 N   0  0  0  0  0  0  0  0  0  0  0  0
   -1.0323   -0.7500    0.0000 N   0  0  0  0  0  0  0  0  0  0  0  0
   -1.0323    0.7500    0.0000 C   0  0  0  0  0  0  0  0  0  0  0  0
   -7.0358    6.6665    0.0000 C   0  0  0  0  0  0  0  0  0  0  0  0
  1  2  1  0
  2  3  2  0
  3  4  1  0
  4  5  2  0
  5  6  1  0
  6  7  2  0
  7  8  1  0
  8  9  2  0
  9 10  1  0
 10 11  1  0
 11 12  2  0
 12 13  1  0
 13 14  2  0
 14 15  1  0
 15 16  2  0
 16 17  1  0
 17 18  2  0
 17 19  1  0
 19 20  2  3
 20 21  1  0
 21 22  2  3
 22 23  1  0
 23 24  2  0
 24 25  1  0
 25 26  2  0
 26 27  1  0
 27 28  2  0
 28 29  1  0
 29 30  2  0
 30 31  1  0
 31 32  2  0
 32 33  1  0
 33 34  2  0
 19 35  1  0
 35 36  1  0
 36 37  2  0
 37 38  1  0
 38 39  2  0
  5 40  1  0
 40  2  1  0
 10  6  1  0
 16 11  1  0
 29 22  1  0
 39 35  1  0
 39 14  1  0
 34 23  1  0
M  END
>  <Title>  (1057) 
idABOQgen8

$$$$

     RDKit          2D

 37 41  0  0  0  0  0  0  0  0999 V2000
    3.7500   -1.2990    0.0000 C   0  0  0  0  0  0  0  0  0  0  0  0
    3.0000    0.0000    0.0000 O   0  0  0  0  0  0  0  0  0  0  0  0
    1.5000    0.0000    0.0000 C   0  0  0  0  0  0  0  0  0  0  0  0
    0.7500   -1.2990    0.0000 C   0  0  0  0  0  0  0  0  0  0  0  0
   -0.7500   -1.2990    0.0000 C   0  0  0  0  0  0  0  0  0  0  0  0
   -1.5000    0.0000    0.0000 C   0  0  0  0  0  0  0  0  0  0  0  0
   -3.0000    0.0000    0.0000 N   0  0  0  0  0  0  0  0  0  0  0  0
   -3.7500    1.2990    0.0000 C   0  0  0  0  0  0  0  0  0  0  0  0
   -5.2500    1.2990    0.0000 N   0  0  0  0  0  0  0  0  0  0  0  0
   -6.0000    0.0000    0.0000 N   0  0  0  0  0  0  0  0  0  0  0  0
   -5.2500   -1.2990    0.0000 N   0  0  0  0  0  0  0  0  0  0  0  0
   -3.7500   -1.2990    0.0000 N   0  0  0  0  0  0  0  0  0  0  0  0
   -3.0000   -2.5981    0.0000 C   0  0  0  0  0  0  0  0  0  0  0  0
   -1.5082   -2.7549    0.0000 C   0  0  0  0  0  0  0  0  0  0  0  0
   -1.1963   -4.2221    0.0000 C   0  0  0  0  0  0  0  0  0  0  0  0
   -2.4954   -4.9721    0.0000 C   0  0  0  0  0  0  0  0  0  0  0  0
   -2.6522   -6.4639    0.0000 C   0  0  0  0  0  0  0  0  0  0  0  0
   -1.5375   -7.4676    0.0000 N   0  0  0  0  0  0  0  0  0  0  0  0
   -2.1476   -8.8379    0.0000 N   0  0  0  0  0  0  0  0  0  0  0  0
   -3.6394   -8.6811    0.0000 N   0  0  0  0  0  0  0  0  0  0  0  0
   -3.9512   -7.2139    0.0000 N   0  0  0  0  0  0  0  0  0  0  0  0
   -5.3215   -6.6038    0.0000 C   0  0  0  0  0  0  0  0  0  0  0  0
   -5.4783   -5.1120    0.0000 C   0  0  0  0  0  0  0  0  0  0  0  0
   -6.8486   -4.5019    0.0000 C   0  0  0  0  0  0  0  0  0  0  0  0
   -8.0622   -5.3836    0.0000 C   0  0  0  0  0  0  0  0  0  0  0  0
   -9.4325   -4.7735    0.0000 C   0  0  0  0  0  0  0  0  0  0  0  0
  -10.6460   -5.6551    0.0000 O   0  0  0  0  0  0  0  0  0  0  0  0
   -9.5893   -3.2817    0.0000 N   0  0  0  0  0  0  0  0  0  0  0  0
  -10.9596   -2.6716    0.0000 O   0  0  0  0  0  0  0  0  0  0  0  0
   -7.9054   -6.8753    0.0000 N   0  0  0  0  0  0  0  0  0  0  0  0
   -6.5351   -7.4854    0.0000 C   0  0  0  0  0  0  0  0  0  0  0  0
   -6.3783   -8.9772    0.0000 O   0  0  0  0  0  0  0  0  0  0  0  0
   -3.6101   -3.9684    0.0000 C   0  0  0  0  0  0  0  0  0  0  0  0
   -5.0773   -4.2803    0.0000 O   0  0  0  0  0  0  0  0  0  0  0  0
   -0.7500    1.2990    0.0000 C   0  0  0  0  0  0  0  0  0  0  0  0
   -1.5000    2.5981    0.0000 O   0  0  0  0  0  0  0  0  0  0  0  0
    0.7500    1.2990    0.0000 N   0  0  0  0  0  0  0  0  0  0  0  0
  1  2  1  0
  2  3  1  0
  3  4  2  0
  4  5  1  0
  5  6  2  0
  6  7  1  0
  7  8  1  0
  8  9  2  0
  9 10  1  0
 10 11  2  0
 11 12  1  0
 12 13  1  0
 13 14  2  0
 14 15  1  0
 15 16  2  0
 16 17  1  0
 17 18  2  0
 18 19  1  0
 19 20  2  0
 20 21  1  0
 21 22  1  0
 22 23  2  0
 23 24  1  0
 24 25  2  0
 25 26  1  0
 26 27  2  0
 26 28  1  0
 28 29  1  0
 25 30  1  0
 30 31  1  0
 31 32  2  0
 16 33  1  0
 33 34  2  0
  6 35  1  0
 35 36  2  0
 35 37  1  0
 37  3  1  0
 12  7  1  0
 33 13  1  0
 21 17  1  0
 31 22  1  0
M  END
>  <Title>  (1058) 
idABORgen8

$$$$

     RDKit          2D

 35 40  0  0  0  0  0  0  0  0999 V2000
    3.0000    0.0000    0.0000 C   0  0  0  0  0  0  0  0  0  0  0  0
    1.5000    0.0000    0.0000 C   0  0  0  0  0  0  0  0  0  0  0  0
    0.7500   -1.2990    0.0000 C   0  0  0  0  0  0  0  0  0  0  0  0
   -0.7500   -1.2990    0.0000 C   0  0  0  0  0  0  0  0  0  0  0  0
   -1.5000    0.0000    0.0000 C   0  0  0  0  0  0  0  0  0  0  0  0
   -3.0000    0.0000    0.0000 C   0  0  0  0  0  0  0  0  0  0  0  0
   -3.8817   -1.2135    0.0000 N   0  0  0  0  0  0  0  0  0  0  0  0
   -5.3083   -0.7500    0.0000 N   0  0  0  0  0  0  0  0  0  0  0  0
   -5.3083    0.7500    0.0000 N   0  0  0  0  0  0  0  0  0  0  0  0
   -3.8817    1.2135    0.0000 N   0  0  0  0  0  0  0  0  0  0  0  0
   -3.4182    2.6401    0.0000 C   0  0  0  0  0  0  0  0  0  0  0  0
   -1.9509    2.9520    0.0000 C   0  0  0  0  0  0  0  0  0  0  0  0
   -1.4874    4.3786    0.0000 C   0  0  0  0  0  0  0  0  0  0  0  0
   -2.4911    5.4933    0.0000 C   0  0  0  0  0  0  0  0  0  0  0  0
   -2.0276    6.9199    0.0000 C   0  0  0  0  0  0  0  0  0  0  0  0
   -0.5604    7.2317    0.0000 C   0  0  0  0  0  0  0  0  0  0  0  0
   -0.0968    8.6583    0.0000 C   0  0  0  0  0  0  0  0  0  0  0  0
   -1.1005    9.7730    0.0000 C   0  0  0  0  0  0  0  0  0  0  0  0
   -2.5677    9.4612    0.0000 N   0  0  0  0  0  0  0  0  0  0  0  0
   -3.0313    8.0346    0.0000 C   0  0  0  0  0  0  0  0  0  0  0  0
   -4.4985    7.7227    0.0000 C   0  0  0  0  0  0  0  0  0  0  0  0
   -5.1086    6.3524    0.0000 N   0  0  0  0  0  0  0  0  0  0  0  0
   -6.6004    6.5092    0.0000 N   0  0  0  0  0  0  0  0  0  0  0  0
   -6.9122    7.9764    0.0000 N   0  0  0  0  0  0  0  0  0  0  0  0
   -5.6132    8.7264    0.0000 N   0  0  0  0  0  0  0  0  0  0  0  0
   -5.4564   10.2182    0.0000 C   0  0  0  0  0  0  0  0  0  0  0  0
   -4.0861   10.8283    0.0000 C   0  0  0  0  0  0  0  0  0  0  0  0
   -3.9293   12.3201    0.0000 C   0  0  0  0  0  0  0  0  0  0  0  0
   -5.1428   13.2018    0.0000 C   0  0  0  0  0  0  0  0  0  0  0  0
   -6.5132   12.5917    0.0000 C   0  0  0  0  0  0  0  0  0  0  0  0
   -6.6699   11.0999    0.0000 C   0  0  0  0  0  0  0  0  0  0  0  0
   -3.9583    5.1814    0.0000 C   0  0  0  0  0  0  0  0  0  0  0  0
   -4.4218    3.7548    0.0000 C   0  0  0  0  0  0  0  0  0  0  0  0
   -0.7500    1.2990    0.0000 C   0  0  0  0  0  0  0  0  0  0  0  0
    0.7500    1.2990    0.0000 C   0  0  0  0  0  0  0  0  0  0  0  0
  1  2  1  0
  2  3  2  0
  3  4  1  0
  4  5  2  0
  5  6  1  0
  6  7  2  0
  7  8  1  0
  8  9  2  0
  9 10  1  0
 10 11  1  0
 11 12  2  0
 12 13  1  0
 13 14  2  0
 14 15  1  0
 15 16  2  0
 16 17  1  0
 17 18  2  0
 18 19  1  0
 19 20  2  0
 20 21  1  0
 21 22  2  0
 22 23  1  0
 23 24  2  0
 24 25  1  0
 25 26  1  0
 26 27  2  0
 27 28  1  0
 28 29  2  0
 29 30  1  0
 30 31  2  0
 14 32  1  0
 32 33  2  0
  5 34  1  0
 34 35  2  0
 35  2  1  0
 10  6  1  0
 33 11  1  0
 20 15  1  0
 25 21  1  0
 31 26  1  0
M  END
>  <Title>  (1059) 
idABOSgen8

$$$$

     RDKit          2D

 15 16  0  0  0  0  0  0  0  0999 V2000
    2.9789    6.6595    0.0000 C   0  0  0  0  0  0  0  0  0  0  0  0
    1.6798    5.9095    0.0000 O   0  0  0  0  0  0  0  0  0  0  0  0
    1.6798    4.4095    0.0000 C   0  0  0  0  0  0  0  0  0  0  0  0
    2.9789    3.6595    0.0000 C   0  0  0  0  0  0  0  0  0  0  0  0
    2.9789    2.1595    0.0000 C   0  0  0  0  0  0  0  0  0  0  0  0
    1.6798    1.4095    0.0000 C   0  0  0  0  0  0  0  0  0  0  0  0
    2.1929    0.0000    0.0000 C   0  0  0  0  0  0  0  0  0  0  0  0
    1.6798   -1.4095    0.0000 C   0  0  0  0  0  0  0  0  0  0  0  0
    0.3808   -2.1595    0.0000 C   0  0  0  0  0  0  0  0  0  0  0  0
   -1.0964   -1.8991    0.0000 C   0  0  0  0  0  0  0  0  0  0  0  0
   -2.0606   -0.7500    0.0000 C   0  0  0  0  0  0  0  0  0  0  0  0
   -2.0606    0.7500    0.0000 C   0  0  0  0  0  0  0  0  0  0  0  0
   -1.0964    1.8991    0.0000 C   0  0  0  0  0  0  0  0  0  0  0  0
    0.3808    2.1595    0.0000 C   0  0  0  0  0  0  0  0  0  0  0  0
    0.3808    3.6595    0.0000 N   0  0  0  0  0  0  0  0  0  0  0  0
  1  2  1  0
  2  3  1  0
  3  4  2  0
  4  5  1  0
  5  6  2  0
  6  7  1  0
  7  8  2  0
  8  9  1  0
  9 10  2  0
 10 11  1  0
 11 12  2  0
 12 13  1  0
 13 14  2  0
 14 15  1  0
 15  3  1  0
 14  6  1  0
M  END
>  <Title>  (1060) 
idABOTgen8

$$$$

     RDKit          2D

 27 29  0  0  0  0  0  0  0  0999 V2000
    3.7500   -1.2990    0.0000 C   0  0  0  0  0  0  0  0  0  0  0  0
    3.0000    0.0000    0.0000 O   0  0  0  0  0  0  0  0  0  0  0  0
    1.5000    0.0000    0.0000 C   0  0  0  0  0  0  0  0  0  0  0  0
    0.7500   -1.2990    0.0000 C   0  0  0  0  0  0  0  0  0  0  0  0
   -0.7500   -1.2990    0.0000 C   0  0  0  0  0  0  0  0  0  0  0  0
   -1.5000    0.0000    0.0000 C   0  0  0  0  0  0  0  0  0  0  0  0
   -3.0000    0.0000    0.0000 C   0  0  0  0  0  0  0  0  0  0  0  0
   -3.7500   -1.2990    0.0000 O   0  0  0  0  0  0  0  0  0  0  0  0
   -3.7500    1.2990    0.0000 N   0  0  0  0  0  0  0  0  0  0  0  0
   -5.2500    1.2990    0.0000 C   0  0  0  0  0  0  0  0  0  0  0  0
   -6.1317    0.0855    0.0000 N   0  0  0  0  0  0  0  0  0  0  0  0
   -7.5583    0.5490    0.0000 N   0  0  0  0  0  0  0  0  0  0  0  0
   -7.5583    2.0490    0.0000 N   0  0  0  0  0  0  0  0  0  0  0  0
   -6.1317    2.5126    0.0000 N   0  0  0  0  0  0  0  0  0  0  0  0
   -5.6682    3.9391    0.0000 C   0  0  0  0  0  0  0  0  0  0  0  0
   -6.5498    5.1527    0.0000 C   0  0  0  0  0  0  0  0  0  0  0  0
   -5.6682    6.3662    0.0000 C   0  0  0  0  0  0  0  0  0  0  0  0
   -4.2416    5.9027    0.0000 C   0  0  0  0  0  0  0  0  0  0  0  0
   -3.0280    6.7844    0.0000 C   0  0  0  0  0  0  0  0  0  0  0  0
   -3.1848    8.2761    0.0000 O   0  0  0  0  0  0  0  0  0  0  0  0
   -1.6577    6.1742    0.0000 N   0  0  0  0  0  0  0  0  0  0  0  0
   -0.4442    7.0559    0.0000 O   0  0  0  0  0  0  0  0  0  0  0  0
   -4.2416    4.4027    0.0000 C   0  0  0  0  0  0  0  0  0  0  0  0
   -3.0280    3.5210    0.0000 O   0  0  0  0  0  0  0  0  0  0  0  0
   -0.7500    1.2990    0.0000 C   0  0  0  0  0  0  0  0  0  0  0  0
   -1.5000    2.5981    0.0000 O   0  0  0  0  0  0  0  0  0  0  0  0
    0.7500    1.2990    0.0000 N   0  0  0  0  0  0  0  0  0  0  0  0
  1  2  1  0
  2  3  1  0
  3  4  2  0
  4  5  1  0
  5  6  2  0
  6  7  1  0
  7  8  2  0
  7  9  1  0
  9 10  1  0
 10 11  2  0
 11 12  1  0
 12 13  2  0
 13 14  1  0
 14 15  1  0
 15 16  2  0
 16 17  1  0
 17 18  2  0
 18 19  1  0
 19 20  2  0
 19 21  1  0
 21 22  1  0
 18 23  1  0
 23 24  2  0
  6 25  1  0
 25 26  2  0
 25 27  1  0
 27  3  1  0
 14 10  1  0
 23 15  1  0
M  END
>  <Title>  (1061) 
idABOUgen8

$$$$

     RDKit          2D

 11 11  0  0  0  0  0  0  0  0999 V2000
    4.2098   -1.2990    0.0000 C   0  0  0  0  0  0  0  0  0  0  0  0
    3.4598   -0.0000    0.0000 O   0  0  0  0  0  0  0  0  0  0  0  0
    1.9598    0.0000    0.0000 C   0  0  0  0  0  0  0  0  0  0  0  0
    1.3858   -1.3858    0.0000 C   0  0  0  0  0  0  0  0  0  0  0  0
   -0.0000   -1.9598    0.0000 C   0  0  0  0  0  0  0  0  0  0  0  0
   -1.3858   -1.3858    0.0000 C   0  0  0  0  0  0  0  0  0  0  0  0
   -1.9598    0.0000    0.0000 C   0  0  0  0  0  0  0  0  0  0  0  0
   -1.3858    1.3858    0.0000 C   0  0  0  0  0  0  0  0  0  0  0  0
    0.0000    1.9598    0.0000 C   0  0  0  0  0  0  0  0  0  0  0  0
    1.3858    1.3858    0.0000 C   0  0  0  0  0  0  0  0  0  0  0  0
    2.4465    2.4465    0.0000 C   0  0  0  0  0  0  0  0  0  0  0  0
  1  2  1  0
  2  3  1  0
  3  4  2  0
  4  5  1  0
  5  6  2  0
  6  7  1  0
  7  8  2  0
  8  9  1  0
  9 10  2  0
 10 11  1  0
 10  3  1  0
M  END
>  <Title>  (1062) 
idABOVgen8

$$$$

     RDKit          2D

 37 41  0  0  0  0  0  0  0  0999 V2000
   12.6935    4.7633    0.0000 C   0  0  0  0  0  0  0  0  0  0  0  0
   11.5348    3.8106    0.0000 C   0  0  0  0  0  0  0  0  0  0  0  0
   11.7806    2.3308    0.0000 C   0  0  0  0  0  0  0  0  0  0  0  0
   10.6219    1.3782    0.0000 C   0  0  0  0  0  0  0  0  0  0  0  0
    9.2176    1.9052    0.0000 C   0  0  0  0  0  0  0  0  0  0  0  0
    8.0590    0.9526    0.0000 C   0  0  0  0  0  0  0  0  0  0  0  0
    8.3047   -0.5272    0.0000 O   0  0  0  0  0  0  0  0  0  0  0  0
    6.6546    1.4796    0.0000 N   0  0  0  0  0  0  0  0  0  0  0  0
    5.4960    0.5269    0.0000 C   0  0  0  0  0  0  0  0  0  0  0  0
    5.5857   -0.9704    0.0000 N   0  0  0  0  0  0  0  0  0  0  0  0
    4.1894   -1.5184    0.0000 N   0  0  0  0  0  0  0  0  0  0  0  0
    3.2367   -0.3598    0.0000 N   0  0  0  0  0  0  0  0  0  0  0  0
    4.0442    0.9043    0.0000 N   0  0  0  0  0  0  0  0  0  0  0  0
    3.4962    2.3006    0.0000 C   0  0  0  0  0  0  0  0  0  0  0  0
    4.4315    3.4734    0.0000 C   0  0  0  0  0  0  0  0  0  0  0  0
    3.8835    4.8697    0.0000 C   0  0  0  0  0  0  0  0  0  0  0  0
    2.4002    5.0933    0.0000 C   0  0  0  0  0  0  0  0  0  0  0  0
    1.4650    3.9205    0.0000 C   0  0  0  0  0  0  0  0  0  0  0  0
    2.0130    2.5242    0.0000 C   0  0  0  0  0  0  0  0  0  0  0  0
    1.0777    1.3515    0.0000 C   0  0  0  0  0  0  0  0  0  0  0  0
    1.7286    0.0000    0.0000 C   0  0  0  0  0  0  0  0  0  0  0  0
    1.0777   -1.3515    0.0000 C   0  0  0  0  0  0  0  0  0  0  0  0
   -0.3846   -1.6852    0.0000 N   0  0  0  0  0  0  0  0  0  0  0  0
   -1.5574   -0.7500    0.0000 N   0  0  0  0  0  0  0  0  0  0  0  0
   -1.5574    0.7500    0.0000 N   0  0  0  0  0  0  0  0  0  0  0  0
   -0.3846    1.6852    0.0000 N   0  0  0  0  0  0  0  0  0  0  0  0
   -0.7184    3.1476    0.0000 C   0  0  0  0  0  0  0  0  0  0  0  0
    0.3812    4.1679    0.0000 C   0  0  0  0  0  0  0  0  0  0  0  0
    0.0474    5.6303    0.0000 C   0  0  0  0  0  0  0  0  0  0  0  0
   -1.3860    6.0724    0.0000 C   0  0  0  0  0  0  0  0  0  0  0  0
   -1.7198    7.5348    0.0000 O   0  0  0  0  0  0  0  0  0  0  0  0
   -2.4856    5.0522    0.0000 C   0  0  0  0  0  0  0  0  0  0  0  0
   -3.9189    5.4943    0.0000 O   0  0  0  0  0  0  0  0  0  0  0  0
   -2.1518    3.5898    0.0000 N   0  0  0  0  0  0  0  0  0  0  0  0
    8.9719    3.3850    0.0000 C   0  0  0  0  0  0  0  0  0  0  0  0
    7.5675    3.9120    0.0000 O   0  0  0  0  0  0  0  0  0  0  0  0
   10.1305    4.3376    0.0000 N   0  0  0  0  0  0  0  0  0  0  0  0
  1  2  1  0
  2  3  2  0
  3  4  1  0
  4  5  2  0
  5  6  1  0
  6  7  2  0
  6  8  1  0
  8  9  1  0
  9 10  2  0
 10 11  1  0
 11 12  2  0
 12 13  1  0
 13 14  1  0
 14 15  1  0
 15 16  1  0
 16 17  1  0
 17 18  1  0
 18 19  1  0
 19 20  1  0
 20 21  2  0
 21 22  1  0
 22 23  2  0
 23 24  1  0
 24 25  2  0
 25 26  1  0
 26 27  1  0
 27 28  2  0
 28 29  1  0
 29 30  2  0
 30 31  1  0
 30 32  1  0
 32 33  2  0
 32 34  1  0
  5 35  1  0
 35 36  2  0
 35 37  1  0
 37  2  1  0
 13  9  1  0
 19 14  1  0
 26 20  1  0
 34 27  1  0
M  END
>  <Title>  (1063) 
idABOWgen8

$$$$

     RDKit          2D

 44 46  0  0  0  0  0  0  0  0999 V2000
    8.4722   -1.2990    0.0000 C   0  0  0  0  0  0  0  0  0  0  0  0
    7.7222    0.0000    0.0000 O   0  0  0  0  0  0  0  0  0  0  0  0
    6.2222    0.0000    0.0000 C   0  0  0  0  0  0  0  0  0  0  0  0
    6.0414   -1.4891    0.0000 C   0  0  0  0  0  0  0  0  0  0  0  0
    5.5095   -2.8916    0.0000 C   0  0  0  0  0  0  0  0  0  0  0  0
    4.6574   -4.1261    0.0000 C   0  0  0  0  0  0  0  0  0  0  0  0
    3.5346   -5.1207    0.0000 C   0  0  0  0  0  0  0  0  0  0  0  0
    2.2064   -5.8178    0.0000 C   0  0  0  0  0  0  0  0  0  0  0  0
    0.7500   -6.1768    0.0000 C   0  0  0  0  0  0  0  0  0  0  0  0
   -0.7500   -6.1768    0.0000 C   0  0  0  0  0  0  0  0  0  0  0  0
   -2.2064   -5.8178    0.0000 C   0  0  0  0  0  0  0  0  0  0  0  0
   -3.5346   -5.1207    0.0000 C   0  0  0  0  0  0  0  0  0  0  0  0
   -4.6574   -4.1261    0.0000 C   0  0  0  0  0  0  0  0  0  0  0  0
   -5.5095   -2.8916    0.0000 C   0  0  0  0  0  0  0  0  0  0  0  0
   -6.0414   -1.4891    0.0000 C   0  0  0  0  0  0  0  0  0  0  0  0
   -6.2222    0.0000    0.0000 C   0  0  0  0  0  0  0  0  0  0  0  0
   -6.0414    1.4891    0.0000 C   0  0  0  0  0  0  0  0  0  0  0  0
   -5.5095    2.8916    0.0000 C   0  0  0  0  0  0  0  0  0  0  0  0
   -4.6574    4.1261    0.0000 C   0  0  0  0  0  0  0  0  0  0  0  0
   -3.5346    5.1207    0.0000 C   0  0  0  0  0  0  0  0  0  0  0  0
   -2.2064    5.8178    0.0000 C   0  0  0  0  0  0  0  0  0  0  0  0
   -0.7500    6.1768    0.0000 C   0  0  0  0  0  0  0  0  0  0  0  0
    0.7500    6.1768    0.0000 C   0  0  0  0  0  0  0  0  0  0  0  0
    2.2064    5.8178    0.0000 C   0  0  0  0  0  0  0  0  0  0  0  0
    3.5346    5.1207    0.0000 C   0  0  0  0  0  0  0  0  0  0  0  0
    4.6574    4.1261    0.0000 C   0  0  0  0  0  0  0  0  0  0  0  0
    5.5095    2.8916    0.0000 C   0  0  0  0  0  0  0  0  0  0  0  0
    6.0414    1.4891    0.0000 C   0  0  0  0  0  0  0  0  0  0  0  0
    7.4978    1.8480    0.0000 N   0  0  0  0  0  0  0  0  0  0  0  0
    8.6443    0.8808    0.0000 C   0  0  0  0  0  0  0  0  0  0  0  0
    9.9185    1.6722    0.0000 C   0  0  0  0  0  0  0  0  0  0  0  0
    9.5595    3.1286    0.0000 C   0  0  0  0  0  0  0  0  0  0  0  0
    8.0634    3.2373    0.0000 C   0  0  0  0  0  0  0  0  0  0  0  0
    7.2720    4.5115    0.0000 C   0  0  0  0  0  0  0  0  0  0  0  0
    7.9797    5.8340    0.0000 C   0  0  0  0  0  0  0  0  0  0  0  0
    7.1883    7.1082    0.0000 C   0  0  0  0  0  0  0  0  0  0  0  0
    7.8960    8.4308    0.0000 C   0  0  0  0  0  0  0  0  0  0  0  0
    9.3947    8.3669    0.0000 O   0  0  0  0  0  0  0  0  0  0  0  0
   10.3790    9.4988    0.0000 C   0  0  0  0  0  0  0  0  0  0  0  0
   10.1077   10.9741    0.0000 C   0  0  0  0  0  0  0  0  0  0  0  0
    8.7852   11.6818    0.0000 C   0  0  0  0  0  0  0  0  0  0  0  0
    7.4073   11.0891    0.0000 C   0  0  0  0  0  0  0  0  0  0  0  0
    7.0116    9.6422    0.0000 C   0  0  0  0  0  0  0  0  0  0  0  0
    5.5363    9.3710    0.0000 O   0  0  0  0  0  0  0  0  0  0  0  0
  1  2  1  0
  2  3  1  0
  3  4  2  0
  4  5  1  0
  5  6  2  0
  6  7  1  0
  7  8  2  0
  8  9  1  0
  9 10  2  0
 10 11  1  0
 11 12  2  0
 12 13  1  0
 13 14  2  0
 14 15  1  0
 15 16  2  0
 16 17  1  0
 17 18  2  0
 18 19  1  0
 19 20  2  0
 20 21  1  0
 21 22  2  0
 22 23  1  0
 23 24  2  0
 24 25  1  0
 25 26  2  0
 26 27  1  0
 27 28  2  0
 28 29  1  0
 29 30  1  0
 30 31  2  0
 31 32  1  0
 32 33  2  0
 33 34  1  0
 34 35  2  3
 35 36  1  0
 36 37  2  3
 37 38  1  0
 38 39  1  0
 39 40  1  0
 40 41  2  0
 41 42  1  0
 42 43  2  0
 43 44  1  0
 28  3  1  0
 33 29  1  0
 43 37  1  0
M  END
>  <Title>  (1064) 
idABOXgen8

$$$$

     RDKit          2D

 24 24  0  0  0  0  0  0  0  0999 V2000
    6.7700    0.0000    0.0000 C   0  0  0  0  0  0  0  0  0  0  0  0
    5.2700    0.0000    0.0000 C   0  0  0  0  0  0  0  0  0  0  0  0
    5.0565   -1.4847    0.0000 C   0  0  0  0  0  0  0  0  0  0  0  0
    4.4334   -2.8492    0.0000 C   0  0  0  0  0  0  0  0  0  0  0  0
    3.4511   -3.9828    0.0000 C   0  0  0  0  0  0  0  0  0  0  0  0
    2.1892   -4.7938    0.0000 C   0  0  0  0  0  0  0  0  0  0  0  0
    0.7500   -5.2164    0.0000 C   0  0  0  0  0  0  0  0  0  0  0  0
   -0.7500   -5.2164    0.0000 C   0  0  0  0  0  0  0  0  0  0  0  0
   -2.1892   -4.7938    0.0000 C   0  0  0  0  0  0  0  0  0  0  0  0
   -3.4511   -3.9828    0.0000 C   0  0  0  0  0  0  0  0  0  0  0  0
   -4.4334   -2.8492    0.0000 C   0  0  0  0  0  0  0  0  0  0  0  0
   -5.0565   -1.4847    0.0000 C   0  0  0  0  0  0  0  0  0  0  0  0
   -5.2700    0.0000    0.0000 C   0  0  0  0  0  0  0  0  0  0  0  0
   -5.0565    1.4847    0.0000 C   0  0  0  0  0  0  0  0  0  0  0  0
   -4.4334    2.8492    0.0000 C   0  0  0  0  0  0  0  0  0  0  0  0
   -3.4511    3.9828    0.0000 C   0  0  0  0  0  0  0  0  0  0  0  0
   -2.1892    4.7938    0.0000 C   0  0  0  0  0  0  0  0  0  0  0  0
   -0.7500    5.2164    0.0000 C   0  0  0  0  0  0  0  0  0  0  0  0
    0.7500    5.2164    0.0000 C   0  0  0  0  0  0  0  0  0  0  0  0
    2.1892    4.7938    0.0000 C   0  0  0  0  0  0  0  0  0  0  0  0
    3.4511    3.9828    0.0000 C   0  0  0  0  0  0  0  0  0  0  0  0
    4.4334    2.8492    0.0000 C   0  0  0  0  0  0  0  0  0  0  0  0
    5.0565    1.4847    0.0000 C   0  0  0  0  0  0  0  0  0  0  0  0
    6.4958    1.9073    0.0000 C   0  0  0  0  0  0  0  0  0  0  0  0
  1  2  1  0
  2  3  2  0
  3  4  1  0
  4  5  2  0
  5  6  1  0
  6  7  2  0
  7  8  1  0
  8  9  2  0
  9 10  1  0
 10 11  2  0
 11 12  1  0
 12 13  2  0
 13 14  1  0
 14 15  2  0
 15 16  1  0
 16 17  2  0
 17 18  1  0
 18 19  2  0
 19 20  1  0
 20 21  2  0
 21 22  1  0
 22 23  2  0
 23 24  1  0
 23  2  1  0
M  END
>  <Title>  (1065) 
idABOYgen8

$$$$

     RDKit          2D

 25 26  0  0  0  0  0  0  0  0999 V2000
    8.1657    5.2718    0.0000 C   0  0  0  0  0  0  0  0  0  0  0  0
    6.6663    5.3132    0.0000 O   0  0  0  0  0  0  0  0  0  0  0  0
    5.8808    4.0353    0.0000 C   0  0  0  0  0  0  0  0  0  0  0  0
    6.5947    2.7161    0.0000 C   0  0  0  0  0  0  0  0  0  0  0  0
    5.8092    1.4382    0.0000 C   0  0  0  0  0  0  0  0  0  0  0  0
    4.3098    1.4795    0.0000 C   0  0  0  0  0  0  0  0  0  0  0  0
    4.5567    0.0000    0.0000 C   0  0  0  0  0  0  0  0  0  0  0  0
    4.3098   -1.4795    0.0000 C   0  0  0  0  0  0  0  0  0  0  0  0
    3.5958   -2.7988    0.0000 C   0  0  0  0  0  0  0  0  0  0  0  0
    2.4923   -3.8147    0.0000 C   0  0  0  0  0  0  0  0  0  0  0  0
    1.1186   -4.4172    0.0000 C   0  0  0  0  0  0  0  0  0  0  0  0
   -0.3763   -4.5411    0.0000 C   0  0  0  0  0  0  0  0  0  0  0  0
   -1.8304   -4.1729    0.0000 C   0  0  0  0  0  0  0  0  0  0  0  0
   -3.0861   -3.3524    0.0000 C   0  0  0  0  0  0  0  0  0  0  0  0
   -4.0075   -2.1687    0.0000 C   0  0  0  0  0  0  0  0  0  0  0  0
   -4.4945   -0.7500    0.0000 C   0  0  0  0  0  0  0  0  0  0  0  0
   -4.4945    0.7500    0.0000 C   0  0  0  0  0  0  0  0  0  0  0  0
   -4.0075    2.1687    0.0000 C   0  0  0  0  0  0  0  0  0  0  0  0
   -3.0861    3.3524    0.0000 C   0  0  0  0  0  0  0  0  0  0  0  0
   -1.8304    4.1729    0.0000 C   0  0  0  0  0  0  0  0  0  0  0  0
   -0.3763    4.5411    0.0000 C   0  0  0  0  0  0  0  0  0  0  0  0
    1.1186    4.4172    0.0000 C   0  0  0  0  0  0  0  0  0  0  0  0
    2.4923    3.8147    0.0000 C   0  0  0  0  0  0  0  0  0  0  0  0
    3.5958    2.7988    0.0000 C   0  0  0  0  0  0  0  0  0  0  0  0
    4.3813    4.0766    0.0000 C   0  0  0  0  0  0  0  0  0  0  0  0
  1  2  1  0
  2  3  1  0
  3  4  2  0
  4  5  1  0
  5  6  2  0
  6  7  1  0
  7  8  2  0
  8  9  1  0
  9 10  2  0
 10 11  1  0
 11 12  2  0
 12 13  1  0
 13 14  2  0
 14 15  1  0
 15 16  2  0
 16 17  1  0
 17 18  2  0
 18 19  1  0
 19 20  2  0
 20 21  1  0
 21 22  2  0
 22 23  1  0
 23 24  2  0
 24 25  1  0
 25  3  1  0
 24  6  1  0
M  END
>  <Title>  (1066) 
idABOZgen8

$$$$

     RDKit          2D

 12 12  0  0  0  0  0  0  0  0999 V2000
    3.9271    0.0000    0.0000 C   0  0  0  0  0  0  0  0  0  0  0  0
    2.4271    0.0000    0.0000 C   0  0  0  0  0  0  0  0  0  0  0  0
    1.9635   -1.4266    0.0000 C   0  0  0  0  0  0  0  0  0  0  0  0
    0.7500   -2.3083    0.0000 C   0  0  0  0  0  0  0  0  0  0  0  0
   -0.7500   -2.3083    0.0000 C   0  0  0  0  0  0  0  0  0  0  0  0
   -1.9635   -1.4266    0.0000 C   0  0  0  0  0  0  0  0  0  0  0  0
   -2.4271    0.0000    0.0000 C   0  0  0  0  0  0  0  0  0  0  0  0
   -1.9635    1.4266    0.0000 C   0  0  0  0  0  0  0  0  0  0  0  0
   -0.7500    2.3083    0.0000 C   0  0  0  0  0  0  0  0  0  0  0  0
    0.7500    2.3083    0.0000 C   0  0  0  0  0  0  0  0  0  0  0  0
    1.9635    1.4266    0.0000 C   0  0  0  0  0  0  0  0  0  0  0  0
    3.1771    2.3083    0.0000 C   0  0  0  0  0  0  0  0  0  0  0  0
  1  2  1  0
  2  3  2  0
  3  4  1  0
  4  5  2  0
  5  6  1  0
  6  7  2  0
  7  8  1  0
  8  9  2  0
  9 10  1  0
 10 11  2  0
 11 12  1  0
 11  2  1  0
M  END
>  <Title>  (1067) 
idABPAgen8

$$$$

     RDKit          2D

 29 32  0  0  0  0  0  0  0  0999 V2000
    3.0000    0.0000    0.0000 C   0  0  0  0  0  0  0  0  0  0  0  0
    1.5000    0.0000    0.0000 C   0  0  0  0  0  0  0  0  0  0  0  0
    0.7500    1.2990    0.0000 C   0  0  0  0  0  0  0  0  0  0  0  0
   -0.7500    1.2990    0.0000 C   0  0  0  0  0  0  0  0  0  0  0  0
   -1.5000    0.0000    0.0000 C   0  0  0  0  0  0  0  0  0  0  0  0
   -3.0000    0.0000    0.0000 C   0  0  0  0  0  0  0  0  0  0  0  0
   -3.8817   -1.2135    0.0000 N   0  0  0  0  0  0  0  0  0  0  0  0
   -5.3083   -0.7500    0.0000 N   0  0  0  0  0  0  0  0  0  0  0  0
   -5.3083    0.7500    0.0000 N   0  0  0  0  0  0  0  0  0  0  0  0
   -3.8817    1.2135    0.0000 N   0  0  0  0  0  0  0  0  0  0  0  0
   -3.4182    2.6401    0.0000 C   0  0  0  0  0  0  0  0  0  0  0  0
   -1.9509    2.9520    0.0000 C   0  0  0  0  0  0  0  0  0  0  0  0
   -1.4874    4.3786    0.0000 C   0  0  0  0  0  0  0  0  0  0  0  0
   -2.4911    5.4933    0.0000 C   0  0  0  0  0  0  0  0  0  0  0  0
   -3.9583    5.1814    0.0000 C   0  0  0  0  0  0  0  0  0  0  0  0
   -4.4218    3.7548    0.0000 C   0  0  0  0  0  0  0  0  0  0  0  0
   -5.8891    3.4430    0.0000 C   0  0  0  0  0  0  0  0  0  0  0  0
   -6.8928    4.5577    0.0000 C   0  0  0  0  0  0  0  0  0  0  0  0
   -8.3600    4.2458    0.0000 C   0  0  0  0  0  0  0  0  0  0  0  0
   -8.8235    2.8192    0.0000 C   0  0  0  0  0  0  0  0  0  0  0  0
  -10.2907    2.5074    0.0000 C   0  0  0  0  0  0  0  0  0  0  0  0
  -10.7543    1.0808    0.0000 O   0  0  0  0  0  0  0  0  0  0  0  0
  -11.2944    3.6221    0.0000 N   0  0  0  0  0  0  0  0  0  0  0  0
  -12.7617    3.3102    0.0000 O   0  0  0  0  0  0  0  0  0  0  0  0
   -7.8198    1.7045    0.0000 C   0  0  0  0  0  0  0  0  0  0  0  0
   -6.3526    2.0164    0.0000 C   0  0  0  0  0  0  0  0  0  0  0  0
   -0.7500   -1.2990    0.0000 C   0  0  0  0  0  0  0  0  0  0  0  0
   -1.5000   -2.5981    0.0000 O   0  0  0  0  0  0  0  0  0  0  0  0
    0.7500   -1.2990    0.0000 N   0  0  0  0  0  0  0  0  0  0  0  0
  1  2  1  0
  2  3  2  0
  3  4  1  0
  4  5  2  0
  5  6  1  0
  6  7  2  0
  7  8  1  0
  8  9  2  0
  9 10  1  0
 10 11  1  0
 11 12  1  0
 12 13  1  0
 13 14  1  0
 14 15  1  0
 15 16  1  0
 16 17  1  0
 17 18  2  0
 18 19  1  0
 19 20  2  0
 20 21  1  0
 21 22  2  0
 21 23  1  0
 23 24  1  0
 20 25  1  0
 25 26  1  0
  5 27  1  0
 27 28  2  0
 27 29  1  0
 29  2  1  0
 10  6  1  0
 16 11  1  0
 26 17  1  0
M  END
>  <Title>  (1068) 
idABPBgen8

$$$$

     RDKit          2D

 11 11  0  0  0  0  0  0  0  0999 V2000
    4.2098   -1.2990    0.0000 O   0  0  0  0  0  0  0  0  0  0  0  0
    3.4598   -0.0000    0.0000 C   0  0  0  0  0  0  0  0  0  0  0  0
    1.9598    0.0000    0.0000 C   0  0  0  0  0  0  0  0  0  0  0  0
    1.3858   -1.3858    0.0000 C   0  0  0  0  0  0  0  0  0  0  0  0
   -0.0000   -1.9598    0.0000 C   0  0  0  0  0  0  0  0  0  0  0  0
   -1.3858   -1.3858    0.0000 C   0  0  0  0  0  0  0  0  0  0  0  0
   -1.9598    0.0000    0.0000 C   0  0  0  0  0  0  0  0  0  0  0  0
   -1.3858    1.3858    0.0000 C   0  0  0  0  0  0  0  0  0  0  0  0
   -2.4465    2.4465    0.0000 F   0  0  0  0  0  0  0  0  0  0  0  0
    0.0000    1.9598    0.0000 C   0  0  0  0  0  0  0  0  0  0  0  0
    1.3858    1.3858    0.0000 C   0  0  0  0  0  0  0  0  0  0  0  0
  1  2  1  0
  2  3  1  0
  3  4  2  0
  4  5  1  0
  5  6  2  0
  6  7  1  0
  7  8  2  0
  8  9  1  0
  8 10  1  0
 10 11  2  0
 11  3  1  0
M  END
>  <Title>  (1069) 
idABPCgen8

$$$$

     RDKit          2D

 23 25  0  0  0  0  0  0  0  0999 V2000
    2.2872   -8.1206    0.0000 O   0  0  0  0  0  0  0  0  0  0  0  0
    3.2909   -7.0059    0.0000 C   0  0  0  0  0  0  0  0  0  0  0  0
    2.8273   -5.5793    0.0000 N   0  0  0  0  0  0  0  0  0  0  0  0
    1.3601   -5.2674    0.0000 C   0  0  0  0  0  0  0  0  0  0  0  0
    0.2454   -6.2711    0.0000 C   0  0  0  0  0  0  0  0  0  0  0  0
   -1.0537   -5.5211    0.0000 C   0  0  0  0  0  0  0  0  0  0  0  0
   -0.7418   -4.0539    0.0000 C   0  0  0  0  0  0  0  0  0  0  0  0
    0.7500   -3.8971    0.0000 C   0  0  0  0  0  0  0  0  0  0  0  0
    1.5000   -2.5981    0.0000 C   0  0  0  0  0  0  0  0  0  0  0  0
    0.7500   -1.2990    0.0000 C   0  0  0  0  0  0  0  0  0  0  0  0
    1.5000    0.0000    0.0000 C   0  0  0  0  0  0  0  0  0  0  0  0
    0.7500    1.2990    0.0000 C   0  0  0  0  0  0  0  0  0  0  0  0
   -0.7500    1.2990    0.0000 C   0  0  0  0  0  0  0  0  0  0  0  0
   -1.5000    0.0000    0.0000 C   0  0  0  0  0  0  0  0  0  0  0  0
   -0.7500   -1.2990    0.0000 C   0  0  0  0  0  0  0  0  0  0  0  0
    4.7581   -7.3178    0.0000 N   0  0  0  0  0  0  0  0  0  0  0  0
    5.2216   -8.7443    0.0000 C   0  0  0  0  0  0  0  0  0  0  0  0
    6.6888   -9.0562    0.0000 C   0  0  0  0  0  0  0  0  0  0  0  0
    7.1523  -10.4828    0.0000 C   0  0  0  0  0  0  0  0  0  0  0  0
    8.6196  -10.7947    0.0000 C   0  0  0  0  0  0  0  0  0  0  0  0
    9.6233   -9.6799    0.0000 C   0  0  0  0  0  0  0  0  0  0  0  0
    9.1597   -8.2534    0.0000 C   0  0  0  0  0  0  0  0  0  0  0  0
    7.6925   -7.9415    0.0000 C   0  0  0  0  0  0  0  0  0  0  0  0
  1  2  2  0
  2  3  1  0
  3  4  2  3
  4  5  1  0
  5  6  2  0
  6  7  1  0
  7  8  2  0
  8  9  1  0
  9 10  1  0
 10 11  2  0
 11 12  1  0
 12 13  2  0
 13 14  1  0
 14 15  2  0
  2 16  1  0
 16 17  1  0
 17 18  1  0
 18 19  2  0
 19 20  1  0
 20 21  2  0
 21 22  1  0
 22 23  2  0
  8  4  1  0
 15 10  1  0
 23 18  1  0
M  END
>  <Title>  (1070) 
idABPDgen8

$$$$

     RDKit          2D

 52 59  0  0  0  0  0  0  0  0999 V2000
   -4.8274   10.7735    0.0000 C   0  0  0  0  0  0  0  0  0  0  0  0
   -5.2909    9.3469    0.0000 C   0  0  0  0  0  0  0  0  0  0  0  0
   -4.2872    8.2322    0.0000 C   0  0  0  0  0  0  0  0  0  0  0  0
   -4.7508    6.8056    0.0000 C   0  0  0  0  0  0  0  0  0  0  0  0
   -6.2180    6.4937    0.0000 C   0  0  0  0  0  0  0  0  0  0  0  0
   -6.6815    5.0672    0.0000 C   0  0  0  0  0  0  0  0  0  0  0  0
   -8.1081    4.6036    0.0000 N   0  0  0  0  0  0  0  0  0  0  0  0
   -8.1081    3.1036    0.0000 N   0  0  0  0  0  0  0  0  0  0  0  0
   -6.6815    2.6401    0.0000 N   0  0  0  0  0  0  0  0  0  0  0  0
   -5.7998    3.8536    0.0000 N   0  0  0  0  0  0  0  0  0  0  0  0
   -4.2998    3.8536    0.0000 C   0  0  0  0  0  0  0  0  0  0  0  0
   -3.4182    2.6401    0.0000 C   0  0  0  0  0  0  0  0  0  0  0  0
   -1.9916    3.1036    0.0000 C   0  0  0  0  0  0  0  0  0  0  0  0
   -1.9916    4.6036    0.0000 C   0  0  0  0  0  0  0  0  0  0  0  0
   -0.7780    5.4853    0.0000 C   0  0  0  0  0  0  0  0  0  0  0  0
   -0.7780    6.9853    0.0000 N   0  0  0  0  0  0  0  0  0  0  0  0
    0.6485    7.4488    0.0000 N   0  0  0  0  0  0  0  0  0  0  0  0
    1.5302    6.2353    0.0000 N   0  0  0  0  0  0  0  0  0  0  0  0
    0.6485    5.0218    0.0000 N   0  0  0  0  0  0  0  0  0  0  0  0
    1.1121    3.5952    0.0000 C   0  0  0  0  0  0  0  0  0  0  0  0
    0.1084    2.4805    0.0000 C   0  0  0  0  0  0  0  0  0  0  0  0
    0.5719    1.0539    0.0000 C   0  0  0  0  0  0  0  0  0  0  0  0
    2.0391    0.7420    0.0000 C   0  0  0  0  0  0  0  0  0  0  0  0
    2.5026   -0.6846    0.0000 C   0  0  0  0  0  0  0  0  0  0  0  0
    3.9699   -0.9964    0.0000 N   0  0  0  0  0  0  0  0  0  0  0  0
    4.4334   -2.4230    0.0000 C   0  0  0  0  0  0  0  0  0  0  0  0
    3.4297   -3.5377    0.0000 O   0  0  0  0  0  0  0  0  0  0  0  0
    5.9006   -2.7349    0.0000 N   0  0  0  0  0  0  0  0  0  0  0  0
    6.3641   -4.1615    0.0000 C   0  0  0  0  0  0  0  0  0  0  0  0
    5.4825   -5.3750    0.0000 N   0  0  0  0  0  0  0  0  0  0  0  0
    6.3641   -6.5885    0.0000 N   0  0  0  0  0  0  0  0  0  0  0  0
    7.7907   -6.1250    0.0000 N   0  0  0  0  0  0  0  0  0  0  0  0
    7.7907   -4.6250    0.0000 N   0  0  0  0  0  0  0  0  0  0  0  0
    9.0042   -3.7433    0.0000 C   0  0  0  0  0  0  0  0  0  0  0  0
   10.3746   -4.3534    0.0000 C   0  0  0  0  0  0  0  0  0  0  0  0
   11.5881   -3.4717    0.0000 C   0  0  0  0  0  0  0  0  0  0  0  0
   11.4313   -1.9799    0.0000 C   0  0  0  0  0  0  0  0  0  0  0  0
   10.0610   -1.3698    0.0000 C   0  0  0  0  0  0  0  0  0  0  0  0
    8.8475   -2.2515    0.0000 C   0  0  0  0  0  0  0  0  0  0  0  0
    3.0428    1.8568    0.0000 C   0  0  0  0  0  0  0  0  0  0  0  0
    2.5793    3.2833    0.0000 C   0  0  0  0  0  0  0  0  0  0  0  0
    3.5830    4.3981    0.0000 C   0  0  0  0  0  0  0  0  0  0  0  0
    5.0502    4.0862    0.0000 C   0  0  0  0  0  0  0  0  0  0  0  0
    6.0539    5.2009    0.0000 C   0  0  0  0  0  0  0  0  0  0  0  0
    5.5904    6.6275    0.0000 C   0  0  0  0  0  0  0  0  0  0  0  0
    4.1232    6.9394    0.0000 C   0  0  0  0  0  0  0  0  0  0  0  0
    3.1195    5.8246    0.0000 C   0  0  0  0  0  0  0  0  0  0  0  0
   -3.4182    5.0672    0.0000 C   0  0  0  0  0  0  0  0  0  0  0  0
   -3.8817    6.4937    0.0000 O   0  0  0  0  0  0  0  0  0  0  0  0
   -7.2217    7.6085    0.0000 C   0  0  0  0  0  0  0  0  0  0  0  0
   -8.6889    7.2966    0.0000 O   0  0  0  0  0  0  0  0  0  0  0  0
   -6.7582    9.0350    0.0000 N   0  0  0  0  0  0  0  0  0  0  0  0
  1  2  1  0
  2  3  2  0
  3  4  1  0
  4  5  2  0
  5  6  1  0
  6  7  2  0
  7  8  1  0
  8  9  2  0
  9 10  1  0
 10 11  1  0
 11 12  2  0
 12 13  1  0
 13 14  2  0
 14 15  1  0
 15 16  2  0
 16 17  1  0
 17 18  2  0
 18 19  1  0
 19 20  1  0
 20 21  2  0
 21 22  1  0
 22 23  2  0
 23 24  1  0
 24 25  1  0
 25 26  1  0
 26 27  2  0
 26 28  1  0
 28 29  1  0
 29 30  2  0
 30 31  1  0
 31 32  2  0
 32 33  1  0
 33 34  1  0
 34 35  2  0
 35 36  1  0
 36 37  2  0
 37 38  1  0
 38 39  2  0
 23 40  1  0
 40 41  2  0
 41 42  1  0
 42 43  2  0
 43 44  1  0
 44 45  2  0
 45 46  1  0
 46 47  2  0
 14 48  1  0
 48 49  2  0
  5 50  1  0
 50 51  2  0
 50 52  1  0
 52  2  1  0
 10  6  1  0
 48 11  1  0
 19 15  1  0
 41 20  1  0
 47 42  1  0
 33 29  1  0
 39 34  1  0
M  END
>  <Title>  (1071) 
idABPEgen8

$$$$

     RDKit          2D

 30 30  0  0  0  0  0  0  0  0999 V2000
    8.9486   -1.2990    0.0000 C   0  0  0  0  0  0  0  0  0  0  0  0
    8.1986    0.0000    0.0000 C   0  0  0  0  0  0  0  0  0  0  0  0
    6.6986    0.0000    0.0000 C   0  0  0  0  0  0  0  0  0  0  0  0
    6.5306   -1.4906    0.0000 C   0  0  0  0  0  0  0  0  0  0  0  0
    6.0352   -2.9064    0.0000 C   0  0  0  0  0  0  0  0  0  0  0  0
    5.2371   -4.1765    0.0000 C   0  0  0  0  0  0  0  0  0  0  0  0
    4.1765   -5.2371    0.0000 C   0  0  0  0  0  0  0  0  0  0  0  0
    2.9064   -6.0352    0.0000 C   0  0  0  0  0  0  0  0  0  0  0  0
    1.4906   -6.5306    0.0000 C   0  0  0  0  0  0  0  0  0  0  0  0
   -0.0000   -6.6986    0.0000 C   0  0  0  0  0  0  0  0  0  0  0  0
   -1.4906   -6.5306    0.0000 C   0  0  0  0  0  0  0  0  0  0  0  0
   -2.9064   -6.0352    0.0000 C   0  0  0  0  0  0  0  0  0  0  0  0
   -4.1765   -5.2371    0.0000 C   0  0  0  0  0  0  0  0  0  0  0  0
   -5.2371   -4.1765    0.0000 C   0  0  0  0  0  0  0  0  0  0  0  0
   -6.0352   -2.9064    0.0000 C   0  0  0  0  0  0  0  0  0  0  0  0
   -6.5306   -1.4906    0.0000 C   0  0  0  0  0  0  0  0  0  0  0  0
   -6.6986    0.0000    0.0000 C   0  0  0  0  0  0  0  0  0  0  0  0
   -6.5306    1.4906    0.0000 C   0  0  0  0  0  0  0  0  0  0  0  0
   -6.0352    2.9064    0.0000 C   0  0  0  0  0  0  0  0  0  0  0  0
   -5.2371    4.1765    0.0000 C   0  0  0  0  0  0  0  0  0  0  0  0
   -4.1765    5.2371    0.0000 C   0  0  0  0  0  0  0  0  0  0  0  0
   -2.9064    6.0352    0.0000 C   0  0  0  0  0  0  0  0  0  0  0  0
   -1.4906    6.5306    0.0000 C   0  0  0  0  0  0  0  0  0  0  0  0
    0.0000    6.6986    0.0000 C   0  0  0  0  0  0  0  0  0  0  0  0
    1.4906    6.5306    0.0000 C   0  0  0  0  0  0  0  0  0  0  0  0
    2.9064    6.0352    0.0000 C   0  0  0  0  0  0  0  0  0  0  0  0
    4.1765    5.2371    0.0000 C   0  0  0  0  0  0  0  0  0  0  0  0
    5.2371    4.1765    0.0000 C   0  0  0  0  0  0  0  0  0  0  0  0
    6.0352    2.9064    0.0000 C   0  0  0  0  0  0  0  0  0  0  0  0
    6.5306    1.4906    0.0000 C   0  0  0  0  0  0  0  0  0  0  0  0
  1  2  1  0
  2  3  1  0
  3  4  2  0
  4  5  1  0
  5  6  2  0
  6  7  1  0
  7  8  2  0
  8  9  1  0
  9 10  2  0
 10 11  1  0
 11 12  2  0
 12 13  1  0
 13 14  2  0
 14 15  1  0
 15 16  2  0
 16 17  1  0
 17 18  2  0
 18 19  1  0
 19 20  2  0
 20 21  1  0
 21 22  2  0
 22 23  1  0
 23 24  2  0
 24 25  1  0
 25 26  2  0
 26 27  1  0
 27 28  2  0
 28 29  1  0
 29 30  2  0
 30  3  1  0
M  END
>  <Title>  (1072) 
idABPFgen8

$$$$

     RDKit          2D

 29 32  0  0  0  0  0  0  0  0999 V2000
    3.0000    0.0000    0.0000 C   0  0  0  0  0  0  0  0  0  0  0  0
    1.5000    0.0000    0.0000 C   0  0  0  0  0  0  0  0  0  0  0  0
    0.7500    1.2990    0.0000 C   0  0  0  0  0  0  0  0  0  0  0  0
   -0.7500    1.2990    0.0000 C   0  0  0  0  0  0  0  0  0  0  0  0
   -1.5000    0.0000    0.0000 C   0  0  0  0  0  0  0  0  0  0  0  0
   -3.0000    0.0000    0.0000 C   0  0  0  0  0  0  0  0  0  0  0  0
   -3.8817   -1.2135    0.0000 N   0  0  0  0  0  0  0  0  0  0  0  0
   -5.3083   -0.7500    0.0000 N   0  0  0  0  0  0  0  0  0  0  0  0
   -5.3083    0.7500    0.0000 N   0  0  0  0  0  0  0  0  0  0  0  0
   -3.8817    1.2135    0.0000 N   0  0  0  0  0  0  0  0  0  0  0  0
   -3.4182    2.6401    0.0000 C   0  0  0  0  0  0  0  0  0  0  0  0
   -1.9509    2.9520    0.0000 C   0  0  0  0  0  0  0  0  0  0  0  0
   -1.4874    4.3786    0.0000 C   0  0  0  0  0  0  0  0  0  0  0  0
   -2.4911    5.4933    0.0000 C   0  0  0  0  0  0  0  0  0  0  0  0
   -3.9583    5.1814    0.0000 C   0  0  0  0  0  0  0  0  0  0  0  0
   -4.4218    3.7548    0.0000 N   0  0  0  0  0  0  0  0  0  0  0  0
   -5.8891    3.4430    0.0000 C   0  0  0  0  0  0  0  0  0  0  0  0
   -6.8928    4.5577    0.0000 C   0  0  0  0  0  0  0  0  0  0  0  0
   -8.3600    4.2458    0.0000 C   0  0  0  0  0  0  0  0  0  0  0  0
   -8.8235    2.8192    0.0000 C   0  0  0  0  0  0  0  0  0  0  0  0
  -10.2907    2.5074    0.0000 C   0  0  0  0  0  0  0  0  0  0  0  0
  -10.7543    1.0808    0.0000 O   0  0  0  0  0  0  0  0  0  0  0  0
  -11.2944    3.6221    0.0000 N   0  0  0  0  0  0  0  0  0  0  0  0
  -12.7617    3.3102    0.0000 O   0  0  0  0  0  0  0  0  0  0  0  0
   -7.8198    1.7045    0.0000 C   0  0  0  0  0  0  0  0  0  0  0  0
   -6.3526    2.0164    0.0000 C   0  0  0  0  0  0  0  0  0  0  0  0
   -0.7500   -1.2990    0.0000 C   0  0  0  0  0  0  0  0  0  0  0  0
   -1.5000   -2.5981    0.0000 O   0  0  0  0  0  0  0  0  0  0  0  0
    0.7500   -1.2990    0.0000 N   0  0  0  0  0  0  0  0  0  0  0  0
  1  2  1  0
  2  3  2  0
  3  4  1  0
  4  5  2  0
  5  6  1  0
  6  7  2  0
  7  8  1  0
  8  9  2  0
  9 10  1  0
 10 11  1  0
 11 12  1  0
 12 13  1  0
 13 14  1  0
 14 15  1  0
 15 16  1  0
 16 17  1  0
 17 18  2  0
 18 19  1  0
 19 20  2  0
 20 21  1  0
 21 22  2  0
 21 23  1  0
 23 24  1  0
 20 25  1  0
 25 26  1  0
  5 27  1  0
 27 28  2  0
 27 29  1  0
 29  2  1  0
 10  6  1  0
 16 11  1  0
 26 17  1  0
M  END
>  <Title>  (1073) 
idABPGgen8

$$$$

     RDKit          2D

 31 31  0  0  0  0  0  0  0  0999 V2000
    8.6751   -0.0000    0.0000 C   0  0  0  0  0  0  0  0  0  0  0  0
    7.1751    0.0000    0.0000 C   0  0  0  0  0  0  0  0  0  0  0  0
    7.0183   -1.4918    0.0000 C   0  0  0  0  0  0  0  0  0  0  0  0
    6.5548   -2.9184    0.0000 C   0  0  0  0  0  0  0  0  0  0  0  0
    5.8048   -4.2174    0.0000 C   0  0  0  0  0  0  0  0  0  0  0  0
    4.8011   -5.3321    0.0000 C   0  0  0  0  0  0  0  0  0  0  0  0
    3.5875   -6.2138    0.0000 C   0  0  0  0  0  0  0  0  0  0  0  0
    2.2172   -6.8239    0.0000 C   0  0  0  0  0  0  0  0  0  0  0  0
    0.7500   -7.1358    0.0000 C   0  0  0  0  0  0  0  0  0  0  0  0
   -0.7500   -7.1358    0.0000 C   0  0  0  0  0  0  0  0  0  0  0  0
   -2.2172   -6.8239    0.0000 C   0  0  0  0  0  0  0  0  0  0  0  0
   -3.5875   -6.2138    0.0000 C   0  0  0  0  0  0  0  0  0  0  0  0
   -4.8011   -5.3321    0.0000 C   0  0  0  0  0  0  0  0  0  0  0  0
   -5.8048   -4.2174    0.0000 C   0  0  0  0  0  0  0  0  0  0  0  0
   -6.5548   -2.9184    0.0000 C   0  0  0  0  0  0  0  0  0  0  0  0
   -7.0183   -1.4918    0.0000 C   0  0  0  0  0  0  0  0  0  0  0  0
   -7.1751    0.0000    0.0000 C   0  0  0  0  0  0  0  0  0  0  0  0
   -7.0183    1.4918    0.0000 C   0  0  0  0  0  0  0  0  0  0  0  0
   -6.5548    2.9184    0.0000 C   0  0  0  0  0  0  0  0  0  0  0  0
   -5.8048    4.2174    0.0000 C   0  0  0  0  0  0  0  0  0  0  0  0
   -4.8011    5.3321    0.0000 C   0  0  0  0  0  0  0  0  0  0  0  0
   -3.5875    6.2138    0.0000 C   0  0  0  0  0  0  0  0  0  0  0  0
   -2.2172    6.8239    0.0000 C   0  0  0  0  0  0  0  0  0  0  0  0
   -0.7500    7.1358    0.0000 C   0  0  0  0  0  0  0  0  0  0  0  0
    0.7500    7.1358    0.0000 C   0  0  0  0  0  0  0  0  0  0  0  0
    2.2172    6.8239    0.0000 C   0  0  0  0  0  0  0  0  0  0  0  0
    3.5875    6.2138    0.0000 C   0  0  0  0  0  0  0  0  0  0  0  0
    4.8011    5.3321    0.0000 C   0  0  0  0  0  0  0  0  0  0  0  0
    5.8048    4.2174    0.0000 C   0  0  0  0  0  0  0  0  0  0  0  0
    6.5548    2.9184    0.0000 C   0  0  0  0  0  0  0  0  0  0  0  0
    7.0183    1.4918    0.0000 C   0  0  0  0  0  0  0  0  0  0  0  0
  1  2  2  0
  2  3  1  0
  3  4  2  0
  4  5  1  0
  5  6  2  0
  6  7  1  0
  7  8  2  0
  8  9  1  0
  9 10  2  0
 10 11  1  0
 11 12  2  0
 12 13  1  0
 13 14  2  0
 14 15  1  0
 15 16  2  0
 16 17  1  0
 17 18  2  0
 18 19  1  0
 19 20  2  0
 20 21  1  0
 21 22  2  0
 22 23  1  0
 23 24  2  0
 24 25  1  0
 25 26  2  0
 26 27  1  0
 27 28  1  0
 28 29  1  0
 29 30  1  0
 30 31  1  0
 31  2  1  0
M  END
>  <Title>  (1074) 
idABPHgen8

$$$$

     RDKit          2D

 23 23  0  0  0  0  0  0  0  0999 V2000
    7.2821   -1.2990    0.0000 C   0  0  0  0  0  0  0  0  0  0  0  0
    6.5321    0.0000    0.0000 C   0  0  0  0  0  0  0  0  0  0  0  0
    5.0321    0.0000    0.0000 C   0  0  0  0  0  0  0  0  0  0  0  0
    4.8086    1.4832    0.0000 C   0  0  0  0  0  0  0  0  0  0  0  0
    4.1577    2.8347    0.0000 C   0  0  0  0  0  0  0  0  0  0  0  0
    3.1375    3.9343    0.0000 C   0  0  0  0  0  0  0  0  0  0  0  0
    1.8384    4.6843    0.0000 C   0  0  0  0  0  0  0  0  0  0  0  0
    0.3761    5.0181    0.0000 C   0  0  0  0  0  0  0  0  0  0  0  0
   -1.1198    4.9060    0.0000 C   0  0  0  0  0  0  0  0  0  0  0  0
   -2.5161    4.3580    0.0000 C   0  0  0  0  0  0  0  0  0  0  0  0
   -3.6888    3.4227    0.0000 C   0  0  0  0  0  0  0  0  0  0  0  0
   -4.5338    2.1834    0.0000 C   0  0  0  0  0  0  0  0  0  0  0  0
   -4.9759    0.7500    0.0000 C   0  0  0  0  0  0  0  0  0  0  0  0
   -4.9759   -0.7500    0.0000 C   0  0  0  0  0  0  0  0  0  0  0  0
   -4.5338   -2.1834    0.0000 C   0  0  0  0  0  0  0  0  0  0  0  0
   -3.6888   -3.4227    0.0000 C   0  0  0  0  0  0  0  0  0  0  0  0
   -2.5161   -4.3580    0.0000 C   0  0  0  0  0  0  0  0  0  0  0  0
   -1.1198   -4.9060    0.0000 C   0  0  0  0  0  0  0  0  0  0  0  0
    0.3761   -5.0181    0.0000 C   0  0  0  0  0  0  0  0  0  0  0  0
    1.8384   -4.6843    0.0000 C   0  0  0  0  0  0  0  0  0  0  0  0
    3.1375   -3.9343    0.0000 C   0  0  0  0  0  0  0  0  0  0  0  0
    4.1577   -2.8347    0.0000 C   0  0  0  0  0  0  0  0  0  0  0  0
    4.8086   -1.4832    0.0000 C   0  0  0  0  0  0  0  0  0  0  0  0
  1  2  1  0
  2  3  1  0
  3  4  2  0
  4  5  1  0
  5  6  2  0
  6  7  1  0
  7  8  1  0
  8  9  1  0
  9 10  1  0
 10 11  2  0
 11 12  1  0
 12 13  2  0
 13 14  1  0
 14 15  2  0
 15 16  1  0
 16 17  2  0
 17 18  1  0
 18 19  2  0
 19 20  1  0
 20 21  2  0
 21 22  1  0
 22 23  2  0
 23  3  1  0
M  END
>  <Title>  (1075) 
idABPIgen8

$$$$

     RDKit          2D

  9  9  0  0  0  0  0  0  0  0999 V2000
    3.4598   -0.0000    0.0000 C   0  0  0  0  0  0  0  0  0  0  0  0
    1.9598    0.0000    0.0000 N   0  0  0  0  0  0  0  0  0  0  0  0
    1.3858   -1.3858    0.0000 C   0  0  0  0  0  0  0  0  0  0  0  0
   -0.0000   -1.9598    0.0000 C   0  0  0  0  0  0  0  0  0  0  0  0
   -1.3858   -1.3858    0.0000 C   0  0  0  0  0  0  0  0  0  0  0  0
   -1.9598    0.0000    0.0000 C   0  0  0  0  0  0  0  0  0  0  0  0
   -1.3858    1.3858    0.0000 C   0  0  0  0  0  0  0  0  0  0  0  0
    0.0000    1.9598    0.0000 C   0  0  0  0  0  0  0  0  0  0  0  0
    1.3858    1.3858    0.0000 C   0  0  0  0  0  0  0  0  0  0  0  0
  1  2  1  0
  2  3  1  0
  3  4  1  0
  4  5  1  0
  5  6  1  0
  6  7  1  0
  7  8  1  0
  8  9  1  0
  9  2  1  0
M  END
>  <Title>  (1076) 
idABPJgen8

$$$$

     RDKit          2D

 20 22  0  0  0  0  0  0  0  0999 V2000
    3.0000    0.0000    0.0000 C   0  0  0  0  0  0  0  0  0  0  0  0
    1.5000    0.0000    0.0000 C   0  0  0  0  0  0  0  0  0  0  0  0
    0.7500    1.2990    0.0000 C   0  0  0  0  0  0  0  0  0  0  0  0
   -0.7500    1.2990    0.0000 C   0  0  0  0  0  0  0  0  0  0  0  0
   -1.5000    0.0000    0.0000 C   0  0  0  0  0  0  0  0  0  0  0  0
   -3.0000    0.0000    0.0000 C   0  0  0  0  0  0  0  0  0  0  0  0
   -3.8817   -1.2135    0.0000 C   0  0  0  0  0  0  0  0  0  0  0  0
   -5.3083   -0.7500    0.0000 N   0  0  0  0  0  0  0  0  0  0  0  0
   -5.3083    0.7500    0.0000 N   0  0  0  0  0  0  0  0  0  0  0  0
   -3.8817    1.2135    0.0000 N   0  0  0  0  0  0  0  0  0  0  0  0
   -3.4182    2.6401    0.0000 C   0  0  0  0  0  0  0  0  0  0  0  0
   -4.2998    3.8536    0.0000 N   0  0  0  0  0  0  0  0  0  0  0  0
   -3.4182    5.0672    0.0000 C   0  0  0  0  0  0  0  0  0  0  0  0
   -3.8817    6.4937    0.0000 O   0  0  0  0  0  0  0  0  0  0  0  0
   -1.9916    4.6036    0.0000 C   0  0  0  0  0  0  0  0  0  0  0  0
   -0.7780    5.4853    0.0000 C   0  0  0  0  0  0  0  0  0  0  0  0
   -1.9916    3.1036    0.0000 N   0  0  0  0  0  0  0  0  0  0  0  0
   -0.7500   -1.2990    0.0000 C   0  0  0  0  0  0  0  0  0  0  0  0
   -1.5000   -2.5981    0.0000 O   0  0  0  0  0  0  0  0  0  0  0  0
    0.7500   -1.2990    0.0000 N   0  0  0  0  0  0  0  0  0  0  0  0
  1  2  1  0
  2  3  2  0
  3  4  1  0
  4  5  2  0
  5  6  1  0
  6  7  2  0
  7  8  1  0
  8  9  2  0
  9 10  1  0
 10 11  1  0
 11 12  1  0
 12 13  1  0
 13 14  2  0
 13 15  1  0
 15 16  1  0
 15 17  1  0
  5 18  1  0
 18 19  2  0
 18 20  1  0
 20  2  1  0
 10  6  1  0
 17 11  1  0
M  END
>  <Title>  (1077) 
idABPKgen8

$$$$

     RDKit          2D

 42 47  0  0  0  0  0  0  0  0999 V2000
    3.0000    0.0000    0.0000 C   0  0  0  0  0  0  0  0  0  0  0  0
    1.5000    0.0000    0.0000 C   0  0  0  0  0  0  0  0  0  0  0  0
    0.7500   -1.2990    0.0000 C   0  0  0  0  0  0  0  0  0  0  0  0
   -0.7500   -1.2990    0.0000 C   0  0  0  0  0  0  0  0  0  0  0  0
   -1.5000    0.0000    0.0000 C   0  0  0  0  0  0  0  0  0  0  0  0
   -3.0000    0.0000    0.0000 C   0  0  0  0  0  0  0  0  0  0  0  0
   -3.8817   -1.2135    0.0000 N   0  0  0  0  0  0  0  0  0  0  0  0
   -5.3083   -0.7500    0.0000 N   0  0  0  0  0  0  0  0  0  0  0  0
   -5.3083    0.7500    0.0000 N   0  0  0  0  0  0  0  0  0  0  0  0
   -3.8817    1.2135    0.0000 N   0  0  0  0  0  0  0  0  0  0  0  0
   -3.4182    2.6401    0.0000 C   0  0  0  0  0  0  0  0  0  0  0  0
   -1.9509    2.9520    0.0000 C   0  0  0  0  0  0  0  0  0  0  0  0
   -1.4874    4.3786    0.0000 C   0  0  0  0  0  0  0  0  0  0  0  0
   -2.4911    5.4933    0.0000 C   0  0  0  0  0  0  0  0  0  0  0  0
   -2.0276    6.9199    0.0000 C   0  0  0  0  0  0  0  0  0  0  0  0
   -3.0313    8.0346    0.0000 O   0  0  0  0  0  0  0  0  0  0  0  0
   -0.5604    7.2317    0.0000 N   0  0  0  0  0  0  0  0  0  0  0  0
   -0.0968    8.6583    0.0000 C   0  0  0  0  0  0  0  0  0  0  0  0
   -0.9785    9.8718    0.0000 N   0  0  0  0  0  0  0  0  0  0  0  0
   -0.0968   11.0854    0.0000 N   0  0  0  0  0  0  0  0  0  0  0  0
    1.3298   10.6218    0.0000 N   0  0  0  0  0  0  0  0  0  0  0  0
    1.3298    9.1218    0.0000 N   0  0  0  0  0  0  0  0  0  0  0  0
    2.5433    8.2402    0.0000 C   0  0  0  0  0  0  0  0  0  0  0  0
    2.3865    6.7484    0.0000 C   0  0  0  0  0  0  0  0  0  0  0  0
    3.6000    5.8667    0.0000 C   0  0  0  0  0  0  0  0  0  0  0  0
    4.9703    6.4768    0.0000 C   0  0  0  0  0  0  0  0  0  0  0  0
    5.1271    7.9686    0.0000 C   0  0  0  0  0  0  0  0  0  0  0  0
    3.9136    8.8503    0.0000 C   0  0  0  0  0  0  0  0  0  0  0  0
   -3.9583    5.1814    0.0000 C   0  0  0  0  0  0  0  0  0  0  0  0
   -4.4218    3.7548    0.0000 C   0  0  0  0  0  0  0  0  0  0  0  0
   -5.8891    3.4430    0.0000 C   0  0  0  0  0  0  0  0  0  0  0  0
   -6.8928    4.5577    0.0000 C   0  0  0  0  0  0  0  0  0  0  0  0
   -8.3600    4.2458    0.0000 C   0  0  0  0  0  0  0  0  0  0  0  0
   -8.8235    2.8192    0.0000 C   0  0  0  0  0  0  0  0  0  0  0  0
  -10.2907    2.5074    0.0000 C   0  0  0  0  0  0  0  0  0  0  0  0
  -10.7543    1.0808    0.0000 O   0  0  0  0  0  0  0  0  0  0  0  0
  -11.2944    3.6221    0.0000 N   0  0  0  0  0  0  0  0  0  0  0  0
  -12.7617    3.3102    0.0000 O   0  0  0  0  0  0  0  0  0  0  0  0
   -7.8198    1.7045    0.0000 C   0  0  0  0  0  0  0  0  0  0  0  0
   -6.3526    2.0164    0.0000 C   0  0  0  0  0  0  0  0  0  0  0  0
   -0.7500    1.2990    0.0000 C   0  0  0  0  0  0  0  0  0  0  0  0
    0.7500    1.2990    0.0000 C   0  0  0  0  0  0  0  0  0  0  0  0
  1  2  1  0
  2  3  2  0
  3  4  1  0
  4  5  2  0
  5  6  1  0
  6  7  2  0
  7  8  1  0
  8  9  2  0
  9 10  1  0
 10 11  1  0
 11 12  2  0
 12 13  1  0
 13 14  2  0
 14 15  1  0
 15 16  2  0
 15 17  1  0
 17 18  1  0
 18 19  2  0
 19 20  1  0
 20 21  2  0
 21 22  1  0
 22 23  1  0
 23 24  2  0
 24 25  1  0
 25 26  2  0
 26 27  1  0
 27 28  2  0
 14 29  1  0
 29 30  2  0
 30 31  1  0
 31 32  2  0
 32 33  1  0
 33 34  2  0
 34 35  1  0
 35 36  2  0
 35 37  1  0
 37 38  1  0
 34 39  1  0
 39 40  2  0
  5 41  1  0
 41 42  2  0
 42  2  1  0
 10  6  1  0
 30 11  1  0
 40 31  1  0
 22 18  1  0
 28 23  1  0
M  END
>  <Title>  (1078) 
idABPLgen8

$$$$

     RDKit          2D

 34 39  0  0  0  0  0  0  0  0999 V2000
   -9.6884    3.9227    0.0000 C   0  0  0  0  0  0  0  0  0  0  0  0
   -8.3570    4.6136    0.0000 C   0  0  0  0  0  0  0  0  0  0  0  0
   -7.0929    3.8061    0.0000 C   0  0  0  0  0  0  0  0  0  0  0  0
   -5.7616    4.4971    0.0000 C   0  0  0  0  0  0  0  0  0  0  0  0
   -5.6943    5.9956    0.0000 C   0  0  0  0  0  0  0  0  0  0  0  0
   -4.3629    6.6865    0.0000 C   0  0  0  0  0  0  0  0  0  0  0  0
   -4.1393    8.1698    0.0000 N   0  0  0  0  0  0  0  0  0  0  0  0
   -2.6596    8.4155    0.0000 N   0  0  0  0  0  0  0  0  0  0  0  0
   -1.9686    7.0841    0.0000 N   0  0  0  0  0  0  0  0  0  0  0  0
   -3.0213    6.0156    0.0000 N   0  0  0  0  0  0  0  0  0  0  0  0
   -2.7756    4.5358    0.0000 C   0  0  0  0  0  0  0  0  0  0  0  0
   -3.9342    3.5831    0.0000 C   0  0  0  0  0  0  0  0  0  0  0  0
   -3.6885    2.1034    0.0000 C   0  0  0  0  0  0  0  0  0  0  0  0
   -2.2841    1.5763    0.0000 C   0  0  0  0  0  0  0  0  0  0  0  0
   -2.4186    3.0703    0.0000 C   0  0  0  0  0  0  0  0  0  0  0  0
   -1.3344    4.1069    0.0000 C   0  0  0  0  0  0  0  0  0  0  0  0
    0.1520    3.9056    0.0000 C   0  0  0  0  0  0  0  0  0  0  0  0
    0.9784    5.1574    0.0000 O   0  0  0  0  0  0  0  0  0  0  0  0
    0.9214    2.6179    0.0000 C   0  0  0  0  0  0  0  0  0  0  0  0
    2.4153    2.7523    0.0000 C   0  0  0  0  0  0  0  0  0  0  0  0
    3.0459    4.1134    0.0000 C   0  0  0  0  0  0  0  0  0  0  0  0
    4.5398    4.2478    0.0000 C   0  0  0  0  0  0  0  0  0  0  0  0
    5.3092    5.5355    0.0000 C   0  0  0  0  0  0  0  0  0  0  0  0
    6.7716    5.2017    0.0000 C   0  0  0  0  0  0  0  0  0  0  0  0
    6.9060    3.7078    0.0000 C   0  0  0  0  0  0  0  0  0  0  0  0
    5.5267    3.1182    0.0000 C   0  0  0  0  0  0  0  0  0  0  0  0
    0.3943    1.2135    0.0000 N   0  0  0  0  0  0  0  0  0  0  0  0
    1.2760    0.0000    0.0000 N   0  0  0  0  0  0  0  0  0  0  0  0
    0.3943   -1.2135    0.0000 N   0  0  0  0  0  0  0  0  0  0  0  0
   -1.0323   -0.7500    0.0000 N   0  0  0  0  0  0  0  0  0  0  0  0
   -1.0323    0.7500    0.0000 C   0  0  0  0  0  0  0  0  0  0  0  0
   -6.9584    6.8031    0.0000 C   0  0  0  0  0  0  0  0  0  0  0  0
   -6.8911    8.3016    0.0000 O   0  0  0  0  0  0  0  0  0  0  0  0
   -8.2897    6.1121    0.0000 N   0  0  0  0  0  0  0  0  0  0  0  0
  1  2  1  0
  2  3  2  0
  3  4  1  0
  4  5  2  0
  5  6  1  0
  6  7  2  0
  7  8  1  0
  8  9  2  0
  9 10  1  0
 10 11  1  0
 11 12  2  0
 12 13  1  0
 13 14  2  0
 14 15  1  0
 15 16  2  0
 16 17  1  0
 17 18  2  0
 17 19  1  0
 19 20  2  3
 20 21  1  0
 21 22  2  3
 22 23  1  0
 23 24  2  0
 24 25  1  0
 25 26  2  0
 19 27  1  0
 27 28  1  0
 28 29  2  0
 29 30  1  0
 30 31  2  0
  5 32  1  0
 32 33  2  0
 32 34  1  0
 34  2  1  0
 10  6  1  0
 16 11  1  0
 26 22  1  0
 31 27  1  0
 31 14  1  0
M  END
>  <Title>  (1079) 
idABPMgen8

$$$$

     RDKit          2D

 38 43  0  0  0  0  0  0  0  0999 V2000
    3.0000    0.0000    0.0000 C   0  0  0  0  0  0  0  0  0  0  0  0
    1.5000    0.0000    0.0000 C   0  0  0  0  0  0  0  0  0  0  0  0
    0.7500   -1.2990    0.0000 C   0  0  0  0  0  0  0  0  0  0  0  0
   -0.7500   -1.2990    0.0000 C   0  0  0  0  0  0  0  0  0  0  0  0
   -1.5000    0.0000    0.0000 C   0  0  0  0  0  0  0  0  0  0  0  0
   -3.0000    0.0000    0.0000 C   0  0  0  0  0  0  0  0  0  0  0  0
   -3.8817   -1.2135    0.0000 N   0  0  0  0  0  0  0  0  0  0  0  0
   -5.3083   -0.7500    0.0000 N   0  0  0  0  0  0  0  0  0  0  0  0
   -5.3083    0.7500    0.0000 N   0  0  0  0  0  0  0  0  0  0  0  0
   -3.8817    1.2135    0.0000 N   0  0  0  0  0  0  0  0  0  0  0  0
   -3.4182    2.6401    0.0000 C   0  0  0  0  0  0  0  0  0  0  0  0
   -1.9509    2.9520    0.0000 C   0  0  0  0  0  0  0  0  0  0  0  0
   -1.4874    4.3786    0.0000 C   0  0  0  0  0  0  0  0  0  0  0  0
   -2.4911    5.4933    0.0000 C   0  0  0  0  0  0  0  0  0  0  0  0
   -3.9583    5.1814    0.0000 N   0  0  0  0  0  0  0  0  0  0  0  0
   -4.4218    3.7548    0.0000 C   0  0  0  0  0  0  0  0  0  0  0  0
   -5.8891    3.4430    0.0000 C   0  0  0  0  0  0  0  0  0  0  0  0
   -6.8928    4.5577    0.0000 C   0  0  0  0  0  0  0  0  0  0  0  0
   -8.3600    4.2458    0.0000 C   0  0  0  0  0  0  0  0  0  0  0  0
   -8.8235    2.8192    0.0000 C   0  0  0  0  0  0  0  0  0  0  0  0
  -10.2907    2.5074    0.0000 C   0  0  0  0  0  0  0  0  0  0  0  0
  -10.7543    1.0808    0.0000 O   0  0  0  0  0  0  0  0  0  0  0  0
  -11.2944    3.6221    0.0000 N   0  0  0  0  0  0  0  0  0  0  0  0
  -12.7617    3.3102    0.0000 C   0  0  0  0  0  0  0  0  0  0  0  0
  -13.3718    1.9399    0.0000 N   0  0  0  0  0  0  0  0  0  0  0  0
  -14.8635    2.0967    0.0000 N   0  0  0  0  0  0  0  0  0  0  0  0
  -15.1754    3.5639    0.0000 N   0  0  0  0  0  0  0  0  0  0  0  0
  -13.8764    4.3139    0.0000 N   0  0  0  0  0  0  0  0  0  0  0  0
  -13.7196    5.8057    0.0000 C   0  0  0  0  0  0  0  0  0  0  0  0
  -12.3493    6.4158    0.0000 C   0  0  0  0  0  0  0  0  0  0  0  0
  -12.1925    7.9076    0.0000 C   0  0  0  0  0  0  0  0  0  0  0  0
  -13.4060    8.7893    0.0000 C   0  0  0  0  0  0  0  0  0  0  0  0
  -14.7763    8.1791    0.0000 C   0  0  0  0  0  0  0  0  0  0  0  0
  -14.9331    6.6874    0.0000 C   0  0  0  0  0  0  0  0  0  0  0  0
   -7.8198    1.7045    0.0000 C   0  0  0  0  0  0  0  0  0  0  0  0
   -6.3526    2.0164    0.0000 C   0  0  0  0  0  0  0  0  0  0  0  0
   -0.7500    1.2990    0.0000 C   0  0  0  0  0  0  0  0  0  0  0  0
    0.7500    1.2990    0.0000 C   0  0  0  0  0  0  0  0  0  0  0  0
  1  2  1  0
  2  3  2  0
  3  4  1  0
  4  5  2  0
  5  6  1  0
  6  7  2  0
  7  8  1  0
  8  9  2  0
  9 10  1  0
 10 11  1  0
 11 12  2  0
 12 13  1  0
 13 14  2  0
 14 15  1  0
 15 16  2  0
 16 17  1  0
 17 18  2  0
 18 19  1  0
 19 20  2  0
 20 21  1  0
 21 22  2  0
 21 23  1  0
 23 24  1  0
 24 25  2  0
 25 26  1  0
 26 27  2  0
 27 28  1  0
 28 29  1  0
 29 30  2  0
 30 31  1  0
 31 32  2  0
 32 33  1  0
 33 34  2  0
 20 35  1  0
 35 36  2  0
  5 37  1  0
 37 38  2  0
 38  2  1  0
 10  6  1  0
 16 11  1  0
 36 17  1  0
 28 24  1  0
 34 29  1  0
M  END
>  <Title>  (1080) 
idABPNgen8

$$$$

     RDKit          2D

 34 37  0  0  0  0  0  0  0  0999 V2000
   -0.0000   -3.4598    0.0000 C   0  0  0  0  0  0  0  0  0  0  0  0
   -0.0000   -1.9598    0.0000 C   0  0  0  0  0  0  0  0  0  0  0  0
    1.3858   -1.3858    0.0000 C   0  0  0  0  0  0  0  0  0  0  0  0
    1.9598   -0.0000    0.0000 C   0  0  0  0  0  0  0  0  0  0  0  0
    1.3858    1.3858    0.0000 C   0  0  0  0  0  0  0  0  0  0  0  0
    0.0000    1.9598    0.0000 C   0  0  0  0  0  0  0  0  0  0  0  0
   -1.3858    1.3858    0.0000 C   0  0  0  0  0  0  0  0  0  0  0  0
   -2.4465    2.4465    0.0000 N   0  0  0  0  0  0  0  0  0  0  0  0
   -3.9280    2.2118    0.0000 C   0  0  0  0  0  0  0  0  0  0  0  0
   -4.6090    3.5483    0.0000 C   0  0  0  0  0  0  0  0  0  0  0  0
   -3.5483    4.6090    0.0000 C   0  0  0  0  0  0  0  0  0  0  0  0
   -2.2118    3.9280    0.0000 C   0  0  0  0  0  0  0  0  0  0  0  0
   -0.8753    4.6090    0.0000 C   0  0  0  0  0  0  0  0  0  0  0  0
    0.3827    3.7920    0.0000 C   0  0  0  0  0  0  0  0  0  0  0  0
    1.7192    4.4730    0.0000 C   0  0  0  0  0  0  0  0  0  0  0  0
    1.7977    5.9710    0.0000 C   0  0  0  0  0  0  0  0  0  0  0  0
    3.1342    6.6520    0.0000 C   0  0  0  0  0  0  0  0  0  0  0  0
    3.2127    8.1499    0.0000 O   0  0  0  0  0  0  0  0  0  0  0  0
    4.3922    5.8350    0.0000 N   0  0  0  0  0  0  0  0  0  0  0  0
    5.7287    6.5160    0.0000 C   0  0  0  0  0  0  0  0  0  0  0  0
    6.9867    5.6990    0.0000 C   0  0  0  0  0  0  0  0  0  0  0  0
    8.3232    6.3800    0.0000 C   0  0  0  0  0  0  0  0  0  0  0  0
    8.4017    7.8780    0.0000 C   0  0  0  0  0  0  0  0  0  0  0  0
    9.7383    8.5589    0.0000 C   0  0  0  0  0  0  0  0  0  0  0  0
    9.8168   10.0569    0.0000 O   0  0  0  0  0  0  0  0  0  0  0  0
   10.9963    7.7420    0.0000 N   0  0  0  0  0  0  0  0  0  0  0  0
   12.3328    8.4230    0.0000 O   0  0  0  0  0  0  0  0  0  0  0  0
    7.1437    8.6949    0.0000 C   0  0  0  0  0  0  0  0  0  0  0  0
    5.8072    8.0139    0.0000 C   0  0  0  0  0  0  0  0  0  0  0  0
    0.5397    6.7879    0.0000 C   0  0  0  0  0  0  0  0  0  0  0  0
   -0.7968    6.1069    0.0000 C   0  0  0  0  0  0  0  0  0  0  0  0
   -1.9598    0.0000    0.0000 C   0  0  0  0  0  0  0  0  0  0  0  0
   -3.4598    0.0000    0.0000 O   0  0  0  0  0  0  0  0  0  0  0  0
   -1.3858   -1.3858    0.0000 N   0  0  0  0  0  0  0  0  0  0  0  0
  1  2  1  0
  2  3  2  0
  3  4  1  0
  4  5  2  0
  5  6  1  0
  6  7  2  0
  7  8  1  0
  8  9  1  0
  9 10  2  0
 10 11  1  0
 11 12  2  0
 12 13  1  0
 13 14  2  0
 14 15  1  0
 15 16  2  0
 16 17  1  0
 17 18  2  0
 17 19  1  0
 19 20  1  0
 20 21  2  0
 21 22  1  0
 22 23  2  0
 23 24  1  0
 24 25  2  0
 24 26  1  0
 26 27  1  0
 23 28  1  0
 28 29  1  0
 16 30  1  0
 30 31  2  0
  7 32  1  0
 32 33  2  0
 32 34  1  0
 34  2  1  0
 12  8  1  0
 31 13  1  0
 29 20  1  0
M  END
>  <Title>  (1081) 
idABPOgen8

$$$$

     RDKit          2D

 29 29  0  0  0  0  0  0  0  0999 V2000
    8.4722   -1.2990    0.0000 C   0  0  0  0  0  0  0  0  0  0  0  0
    7.7222    0.0000    0.0000 O   0  0  0  0  0  0  0  0  0  0  0  0
    6.2222    0.0000    0.0000 C   0  0  0  0  0  0  0  0  0  0  0  0
    6.0414   -1.4891    0.0000 C   0  0  0  0  0  0  0  0  0  0  0  0
    5.5095   -2.8916    0.0000 C   0  0  0  0  0  0  0  0  0  0  0  0
    4.6574   -4.1261    0.0000 C   0  0  0  0  0  0  0  0  0  0  0  0
    3.5346   -5.1207    0.0000 C   0  0  0  0  0  0  0  0  0  0  0  0
    2.2064   -5.8178    0.0000 C   0  0  0  0  0  0  0  0  0  0  0  0
    0.7500   -6.1768    0.0000 C   0  0  0  0  0  0  0  0  0  0  0  0
   -0.7500   -6.1768    0.0000 C   0  0  0  0  0  0  0  0  0  0  0  0
   -2.2064   -5.8178    0.0000 C   0  0  0  0  0  0  0  0  0  0  0  0
   -3.5346   -5.1207    0.0000 C   0  0  0  0  0  0  0  0  0  0  0  0
   -4.6574   -4.1261    0.0000 C   0  0  0  0  0  0  0  0  0  0  0  0
   -5.5095   -2.8916    0.0000 C   0  0  0  0  0  0  0  0  0  0  0  0
   -6.0414   -1.4891    0.0000 C   0  0  0  0  0  0  0  0  0  0  0  0
   -6.2222    0.0000    0.0000 C   0  0  0  0  0  0  0  0  0  0  0  0
   -6.0414    1.4891    0.0000 C   0  0  0  0  0  0  0  0  0  0  0  0
   -5.5095    2.8916    0.0000 C   0  0  0  0  0  0  0  0  0  0  0  0
   -4.6574    4.1261    0.0000 C   0  0  0  0  0  0  0  0  0  0  0  0
   -3.5346    5.1207    0.0000 C   0  0  0  0  0  0  0  0  0  0  0  0
   -2.2064    5.8178    0.0000 C   0  0  0  0  0  0  0  0  0  0  0  0
   -0.7500    6.1768    0.0000 C   0  0  0  0  0  0  0  0  0  0  0  0
    0.7500    6.1768    0.0000 C   0  0  0  0  0  0  0  0  0  0  0  0
    2.2064    5.8178    0.0000 C   0  0  0  0  0  0  0  0  0  0  0  0
    3.5346    5.1207    0.0000 C   0  0  0  0  0  0  0  0  0  0  0  0
    4.6574    4.1261    0.0000 C   0  0  0  0  0  0  0  0  0  0  0  0
    5.5095    2.8916    0.0000 C   0  0  0  0  0  0  0  0  0  0  0  0
    6.0414    1.4891    0.0000 C   0  0  0  0  0  0  0  0  0  0  0  0
    7.4978    1.8480    0.0000 O   0  0  0  0  0  0  0  0  0  0  0  0
  1  2  1  0
  2  3  1  0
  3  4  2  0
  4  5  1  0
  5  6  2  0
  6  7  1  0
  7  8  2  0
  8  9  1  0
  9 10  2  0
 10 11  1  0
 11 12  2  0
 12 13  1  0
 13 14  2  0
 14 15  1  0
 15 16  2  0
 16 17  1  0
 17 18  2  0
 18 19  1  0
 19 20  2  0
 20 21  1  0
 21 22  2  0
 22 23  1  0
 23 24  2  0
 24 25  1  0
 25 26  2  0
 26 27  1  0
 27 28  2  0
 28 29  1  0
 28  3  1  0
M  END
>  <Title>  (1082) 
idABPPgen8

$$$$

     RDKit          2D

 30 34  0  0  0  0  0  0  0  0999 V2000
    3.0000    0.0000    0.0000 C   0  0  0  0  0  0  0  0  0  0  0  0
    1.5000    0.0000    0.0000 C   0  0  0  0  0  0  0  0  0  0  0  0
    0.7500    1.2990    0.0000 C   0  0  0  0  0  0  0  0  0  0  0  0
   -0.7500    1.2990    0.0000 C   0  0  0  0  0  0  0  0  0  0  0  0
   -1.5000    0.0000    0.0000 C   0  0  0  0  0  0  0  0  0  0  0  0
   -3.0000    0.0000    0.0000 C   0  0  0  0  0  0  0  0  0  0  0  0
   -3.8817   -1.2135    0.0000 N   0  0  0  0  0  0  0  0  0  0  0  0
   -5.3083   -0.7500    0.0000 N   0  0  0  0  0  0  0  0  0  0  0  0
   -5.3083    0.7500    0.0000 N   0  0  0  0  0  0  0  0  0  0  0  0
   -3.8817    1.2135    0.0000 N   0  0  0  0  0  0  0  0  0  0  0  0
   -3.4182    2.6401    0.0000 C   0  0  0  0  0  0  0  0  0  0  0  0
   -4.2998    3.8536    0.0000 C   0  0  0  0  0  0  0  0  0  0  0  0
   -3.4182    5.0672    0.0000 C   0  0  0  0  0  0  0  0  0  0  0  0
   -1.9916    4.6036    0.0000 C   0  0  0  0  0  0  0  0  0  0  0  0
   -0.7780    5.4853    0.0000 C   0  0  0  0  0  0  0  0  0  0  0  0
    0.6485    5.0218    0.0000 C   0  0  0  0  0  0  0  0  0  0  0  0
    1.5302    6.2353    0.0000 N   0  0  0  0  0  0  0  0  0  0  0  0
    0.6485    7.4488    0.0000 N   0  0  0  0  0  0  0  0  0  0  0  0
   -0.7780    6.9853    0.0000 N   0  0  0  0  0  0  0  0  0  0  0  0
   -1.9916    7.8670    0.0000 C   0  0  0  0  0  0  0  0  0  0  0  0
   -3.3619    7.2569    0.0000 C   0  0  0  0  0  0  0  0  0  0  0  0
   -4.5754    8.1386    0.0000 C   0  0  0  0  0  0  0  0  0  0  0  0
   -4.4186    9.6303    0.0000 C   0  0  0  0  0  0  0  0  0  0  0  0
   -3.0483   10.2405    0.0000 C   0  0  0  0  0  0  0  0  0  0  0  0
   -1.8348    9.3588    0.0000 C   0  0  0  0  0  0  0  0  0  0  0  0
   -1.9916    3.1036    0.0000 C   0  0  0  0  0  0  0  0  0  0  0  0
   -0.7780    2.2220    0.0000 O   0  0  0  0  0  0  0  0  0  0  0  0
   -0.7500   -1.2990    0.0000 N   0  0  0  0  0  0  0  0  0  0  0  0
    0.7500   -1.2990    0.0000 C   0  0  0  0  0  0  0  0  0  0  0  0
    1.5000   -2.5981    0.0000 O   0  0  0  0  0  0  0  0  0  0  0  0
  1  2  1  0
  2  3  2  0
  3  4  1  0
  4  5  2  0
  5  6  1  0
  6  7  2  0
  7  8  1  0
  8  9  2  0
  9 10  1  0
 10 11  1  0
 11 12  2  0
 12 13  1  0
 13 14  2  0
 14 15  1  0
 15 16  2  0
 16 17  1  0
 17 18  2  0
 18 19  1  0
 19 20  1  0
 20 21  2  0
 21 22  1  0
 22 23  2  0
 23 24  1  0
 24 25  2  0
 14 26  1  0
 26 27  2  0
  5 28  1  0
 28 29  1  0
 29 30  2  0
 29  2  1  0
 10  6  1  0
 26 11  1  0
 19 15  1  0
 25 20  1  0
M  END
>  <Title>  (1083) 
idABPQgen8

$$$$

     RDKit          2D

 39 43  0  0  0  0  0  0  0  0999 V2000
    5.2500   -1.2990    0.0000 C   0  0  0  0  0  0  0  0  0  0  0  0
    3.7500   -1.2990    0.0000 C   0  0  0  0  0  0  0  0  0  0  0  0
    3.0000   -2.5981    0.0000 O   0  0  0  0  0  0  0  0  0  0  0  0
    3.0000    0.0000    0.0000 O   0  0  0  0  0  0  0  0  0  0  0  0
    1.5000    0.0000    0.0000 C   0  0  0  0  0  0  0  0  0  0  0  0
    0.7500   -1.2990    0.0000 C   0  0  0  0  0  0  0  0  0  0  0  0
   -0.7500   -1.2990    0.0000 C   0  0  0  0  0  0  0  0  0  0  0  0
   -1.5000    0.0000    0.0000 C   0  0  0  0  0  0  0  0  0  0  0  0
   -3.0000    0.0000    0.0000 C   0  0  0  0  0  0  0  0  0  0  0  0
   -3.7500   -1.2990    0.0000 O   0  0  0  0  0  0  0  0  0  0  0  0
   -3.7500    1.2990    0.0000 N   0  0  0  0  0  0  0  0  0  0  0  0
   -5.2500    1.2990    0.0000 C   0  0  0  0  0  0  0  0  0  0  0  0
   -6.1317    0.0855    0.0000 N   0  0  0  0  0  0  0  0  0  0  0  0
   -7.5583    0.5490    0.0000 N   0  0  0  0  0  0  0  0  0  0  0  0
   -7.5583    2.0490    0.0000 N   0  0  0  0  0  0  0  0  0  0  0  0
   -6.1317    2.5126    0.0000 N   0  0  0  0  0  0  0  0  0  0  0  0
   -5.6682    3.9391    0.0000 C   0  0  0  0  0  0  0  0  0  0  0  0
   -6.5498    5.1527    0.0000 C   0  0  0  0  0  0  0  0  0  0  0  0
   -5.6682    6.3662    0.0000 C   0  0  0  0  0  0  0  0  0  0  0  0
   -4.2416    5.9027    0.0000 C   0  0  0  0  0  0  0  0  0  0  0  0
   -3.0280    6.7844    0.0000 C   0  0  0  0  0  0  0  0  0  0  0  0
   -3.1848    8.2761    0.0000 O   0  0  0  0  0  0  0  0  0  0  0  0
   -1.6577    6.1742    0.0000 N   0  0  0  0  0  0  0  0  0  0  0  0
   -0.4442    7.0559    0.0000 C   0  0  0  0  0  0  0  0  0  0  0  0
   -0.4442    8.5559    0.0000 N   0  0  0  0  0  0  0  0  0  0  0  0
    0.9824    9.0195    0.0000 N   0  0  0  0  0  0  0  0  0  0  0  0
    1.8641    7.8059    0.0000 N   0  0  0  0  0  0  0  0  0  0  0  0
    0.9824    6.5924    0.0000 N   0  0  0  0  0  0  0  0  0  0  0  0
    1.4459    5.1658    0.0000 C   0  0  0  0  0  0  0  0  0  0  0  0
    0.4422    4.0511    0.0000 C   0  0  0  0  0  0  0  0  0  0  0  0
    0.9057    2.6245    0.0000 C   0  0  0  0  0  0  0  0  0  0  0  0
    2.3730    2.3126    0.0000 C   0  0  0  0  0  0  0  0  0  0  0  0
    3.3767    3.4274    0.0000 C   0  0  0  0  0  0  0  0  0  0  0  0
    2.9131    4.8539    0.0000 C   0  0  0  0  0  0  0  0  0  0  0  0
   -4.2416    4.4027    0.0000 C   0  0  0  0  0  0  0  0  0  0  0  0
   -3.0280    3.5210    0.0000 O   0  0  0  0  0  0  0  0  0  0  0  0
   -0.7500    1.2990    0.0000 C   0  0  0  0  0  0  0  0  0  0  0  0
   -1.5000    2.5981    0.0000 O   0  0  0  0  0  0  0  0  0  0  0  0
    0.7500    1.2990    0.0000 N   0  0  0  0  0  0  0  0  0  0  0  0
  1  2  1  0
  2  3  2  0
  2  4  1  0
  4  5  1  0
  5  6  2  0
  6  7  1  0
  7  8  2  0
  8  9  1  0
  9 10  2  0
  9 11  1  0
 11 12  1  0
 12 13  2  0
 13 14  1  0
 14 15  2  0
 15 16  1  0
 16 17  1  0
 17 18  2  0
 18 19  1  0
 19 20  2  0
 20 21  1  0
 21 22  2  0
 21 23  1  0
 23 24  1  0
 24 25  2  0
 25 26  1  0
 26 27  2  0
 27 28  1  0
 28 29  1  0
 29 30  2  0
 30 31  1  0
 31 32  2  0
 32 33  1  0
 33 34  2  0
 20 35  1  0
 35 36  2  0
  8 37  1  0
 37 38  2  0
 37 39  1  0
 39  5  1  0
 16 12  1  0
 35 17  1  0
 28 24  1  0
 34 29  1  0
M  END
>  <Title>  (1084) 
idABPRgen8

$$$$

     RDKit          2D

 27 30  0  0  0  0  0  0  0  0999 V2000
  -10.1624    4.2767    0.0000 C   0  0  0  0  0  0  0  0  0  0  0  0
   -8.9488    3.3950    0.0000 C   0  0  0  0  0  0  0  0  0  0  0  0
   -9.1056    1.9033    0.0000 C   0  0  0  0  0  0  0  0  0  0  0  0
   -7.8921    1.0216    0.0000 C   0  0  0  0  0  0  0  0  0  0  0  0
   -6.5218    1.6317    0.0000 C   0  0  0  0  0  0  0  0  0  0  0  0
   -5.3083    0.7500    0.0000 C   0  0  0  0  0  0  0  0  0  0  0  0
   -5.3083   -0.7500    0.0000 N   0  0  0  0  0  0  0  0  0  0  0  0
   -3.8817   -1.2135    0.0000 N   0  0  0  0  0  0  0  0  0  0  0  0
   -3.0000    0.0000    0.0000 N   0  0  0  0  0  0  0  0  0  0  0  0
   -3.8817    1.2135    0.0000 N   0  0  0  0  0  0  0  0  0  0  0  0
   -3.4182    2.6401    0.0000 C   0  0  0  0  0  0  0  0  0  0  0  0
   -4.2998    3.8536    0.0000 C   0  0  0  0  0  0  0  0  0  0  0  0
   -3.4182    5.0672    0.0000 N   0  0  0  0  0  0  0  0  0  0  0  0
   -1.9916    4.6036    0.0000 N   0  0  0  0  0  0  0  0  0  0  0  0
   -1.9916    3.1036    0.0000 N   0  0  0  0  0  0  0  0  0  0  0  0
   -0.7780    2.2220    0.0000 C   0  0  0  0  0  0  0  0  0  0  0  0
   -0.9348    0.7302    0.0000 C   0  0  0  0  0  0  0  0  0  0  0  0
    0.2787   -0.1515    0.0000 C   0  0  0  0  0  0  0  0  0  0  0  0
    1.6490    0.4586    0.0000 C   0  0  0  0  0  0  0  0  0  0  0  0
    2.8625   -0.4231    0.0000 C   0  0  0  0  0  0  0  0  0  0  0  0
    2.7057   -1.9149    0.0000 O   0  0  0  0  0  0  0  0  0  0  0  0
    4.2329    0.1870    0.0000 N   0  0  0  0  0  0  0  0  0  0  0  0
    5.4464   -0.6946    0.0000 O   0  0  0  0  0  0  0  0  0  0  0  0
    1.8058    1.9504    0.0000 C   0  0  0  0  0  0  0  0  0  0  0  0
    0.5923    2.8321    0.0000 C   0  0  0  0  0  0  0  0  0  0  0  0
   -6.3650    3.1235    0.0000 C   0  0  0  0  0  0  0  0  0  0  0  0
   -7.5785    4.0051    0.0000 C   0  0  0  0  0  0  0  0  0  0  0  0
  1  2  1  0
  2  3  2  0
  3  4  1  0
  4  5  2  0
  5  6  1  0
  6  7  2  0
  7  8  1  0
  8  9  2  0
  9 10  1  0
 10 11  1  0
 11 12  2  0
 12 13  1  0
 13 14  2  0
 14 15  1  0
 15 16  1  0
 16 17  2  0
 17 18  1  0
 18 19  2  0
 19 20  1  0
 20 21  2  0
 20 22  1  0
 22 23  1  0
 19 24  1  0
 24 25  1  0
  5 26  1  0
 26 27  2  0
 27  2  1  0
 10  6  1  0
 15 11  1  0
 25 16  1  0
M  END
>  <Title>  (1085) 
idABPSgen8

$$$$

     RDKit          2D

 52 58  0  0  0  0  0  0  0  0999 V2000
    0.8311   10.2038    0.0000 C   0  0  0  0  0  0  0  0  0  0  0  0
   -0.5392    9.5937    0.0000 C   0  0  0  0  0  0  0  0  0  0  0  0
   -1.7527   10.4753    0.0000 C   0  0  0  0  0  0  0  0  0  0  0  0
   -3.1230    9.8652    0.0000 C   0  0  0  0  0  0  0  0  0  0  0  0
   -3.2798    8.3735    0.0000 C   0  0  0  0  0  0  0  0  0  0  0  0
   -4.6502    7.7634    0.0000 C   0  0  0  0  0  0  0  0  0  0  0  0
   -5.9492    8.5134    0.0000 N   0  0  0  0  0  0  0  0  0  0  0  0
   -7.0639    7.5097    0.0000 N   0  0  0  0  0  0  0  0  0  0  0  0
   -6.4538    6.1393    0.0000 N   0  0  0  0  0  0  0  0  0  0  0  0
   -4.9620    6.2961    0.0000 N   0  0  0  0  0  0  0  0  0  0  0  0
   -3.9583    5.1814    0.0000 C   0  0  0  0  0  0  0  0  0  0  0  0
   -2.4911    5.4933    0.0000 C   0  0  0  0  0  0  0  0  0  0  0  0
   -1.4874    4.3786    0.0000 C   0  0  0  0  0  0  0  0  0  0  0  0
   -1.9509    2.9520    0.0000 C   0  0  0  0  0  0  0  0  0  0  0  0
   -0.9472    1.8373    0.0000 F   0  0  0  0  0  0  0  0  0  0  0  0
   -3.4182    2.6401    0.0000 C   0  0  0  0  0  0  0  0  0  0  0  0
   -4.4218    3.7548    0.0000 C   0  0  0  0  0  0  0  0  0  0  0  0
   -5.8891    3.4430    0.0000 C   0  0  0  0  0  0  0  0  0  0  0  0
   -6.8928    4.5577    0.0000 C   0  0  0  0  0  0  0  0  0  0  0  0
   -8.3600    4.2458    0.0000 C   0  0  0  0  0  0  0  0  0  0  0  0
   -8.8235    2.8192    0.0000 C   0  0  0  0  0  0  0  0  0  0  0  0
  -10.2907    2.5074    0.0000 C   0  0  0  0  0  0  0  0  0  0  0  0
  -11.2944    3.6221    0.0000 C   0  0  0  0  0  0  0  0  0  0  0  0
  -12.7617    3.3102    0.0000 C   0  0  0  0  0  0  0  0  0  0  0  0
  -13.2252    1.8836    0.0000 C   0  0  0  0  0  0  0  0  0  0  0  0
  -14.6924    1.5718    0.0000 C   0  0  0  0  0  0  0  0  0  0  0  0
  -12.2215    0.7689    0.0000 C   0  0  0  0  0  0  0  0  0  0  0  0
  -12.6850   -0.6577    0.0000 O   0  0  0  0  0  0  0  0  0  0  0  0
  -10.7543    1.0808    0.0000 N   0  0  0  0  0  0  0  0  0  0  0  0
   -7.8198    1.7045    0.0000 C   0  0  0  0  0  0  0  0  0  0  0  0
   -6.3526    2.0164    0.0000 C   0  0  0  0  0  0  0  0  0  0  0  0
   -5.3489    0.9017    0.0000 C   0  0  0  0  0  0  0  0  0  0  0  0
   -3.8817    1.2135    0.0000 C   0  0  0  0  0  0  0  0  0  0  0  0
   -2.8780    0.0988    0.0000 C   0  0  0  0  0  0  0  0  0  0  0  0
   -3.3415   -1.3278    0.0000 C   0  0  0  0  0  0  0  0  0  0  0  0
   -2.3378   -2.4425    0.0000 C   0  0  0  0  0  0  0  0  0  0  0  0
   -2.8013   -3.8691    0.0000 O   0  0  0  0  0  0  0  0  0  0  0  0
   -0.8706   -2.1306    0.0000 N   0  0  0  0  0  0  0  0  0  0  0  0
    0.1331   -3.2453    0.0000 O   0  0  0  0  0  0  0  0  0  0  0  0
   -4.8087   -1.6396    0.0000 C   0  0  0  0  0  0  0  0  0  0  0  0
   -5.2723   -3.0662    0.0000 C   0  0  0  0  0  0  0  0  0  0  0  0
   -5.8124   -0.5249    0.0000 C   0  0  0  0  0  0  0  0  0  0  0  0
   -7.2796   -0.8368    0.0000 C   0  0  0  0  0  0  0  0  0  0  0  0
   -8.2833    0.2779    0.0000 C   0  0  0  0  0  0  0  0  0  0  0  0
   -9.7506   -0.0339    0.0000 C   0  0  0  0  0  0  0  0  0  0  0  0
  -10.2141   -1.4605    0.0000 C   0  0  0  0  0  0  0  0  0  0  0  0
  -11.6813   -1.7724    0.0000 C   0  0  0  0  0  0  0  0  0  0  0  0
   -9.2104   -2.5752    0.0000 C   0  0  0  0  0  0  0  0  0  0  0  0
   -9.6739   -4.0018    0.0000 O   0  0  0  0  0  0  0  0  0  0  0  0
   -7.7432   -2.2634    0.0000 N   0  0  0  0  0  0  0  0  0  0  0  0
   -2.0663    7.4918    0.0000 N   0  0  0  0  0  0  0  0  0  0  0  0
   -0.6960    8.1019    0.0000 C   0  0  0  0  0  0  0  0  0  0  0  0
  1  2  1  0
  2  3  2  0
  3  4  1  0
  4  5  2  0
  5  6  1  0
  6  7  2  0
  7  8  1  0
  8  9  2  0
  9 10  1  0
 10 11  1  0
 11 12  2  0
 12 13  1  0
 13 14  2  0
 14 15  1  0
 14 16  1  0
 16 17  2  0
 17 18  1  0
 18 19  2  0
 19 20  1  0
 20 21  2  0
 21 22  1  0
 22 23  2  0
 23 24  1  0
 24 25  2  0
 25 26  1  0
 25 27  1  0
 27 28  2  0
 27 29  1  0
 21 30  1  0
 30 31  2  0
 31 32  1  0
 32 33  2  0
 33 34  1  0
 34 35  2  0
 35 36  1  0
 36 37  2  0
 36 38  1  0
 38 39  1  0
 35 40  1  0
 40 41  1  0
 40 42  2  0
 42 43  1  0
 43 44  2  0
 44 45  1  0
 45 46  2  0
 46 47  1  0
 46 48  1  0
 48 49  2  0
 48 50  1  0
  5 51  1  0
 51 52  1  0
 52  2  1  0
 10  6  1  0
 17 11  1  0
 31 18  1  0
 42 32  1  0
 50 43  1  0
 29 22  1  0
M  END
>  <Title>  (1086) 
idABPTgen8

$$$$

     RDKit          2D

 37 42  0  0  0  0  0  0  0  0999 V2000
    5.6883   -3.2846    0.0000 C   0  0  0  0  0  0  0  0  0  0  0  0
    5.1403   -1.8883    0.0000 C   0  0  0  0  0  0  0  0  0  0  0  0
    3.6570   -1.6647    0.0000 C   0  0  0  0  0  0  0  0  0  0  0  0
    3.1090   -0.2684    0.0000 C   0  0  0  0  0  0  0  0  0  0  0  0
    4.0442    0.9043    0.0000 C   0  0  0  0  0  0  0  0  0  0  0  0
    3.4962    2.3006    0.0000 C   0  0  0  0  0  0  0  0  0  0  0  0
    4.4315    3.4734    0.0000 N   0  0  0  0  0  0  0  0  0  0  0  0
    3.8835    4.8697    0.0000 C   0  0  0  0  0  0  0  0  0  0  0  0
    2.4002    5.0933    0.0000 C   0  0  0  0  0  0  0  0  0  0  0  0
    1.4650    3.9205    0.0000 C   0  0  0  0  0  0  0  0  0  0  0  0
    2.0130    2.5242    0.0000 C   0  0  0  0  0  0  0  0  0  0  0  0
    1.0777    1.3515    0.0000 N   0  0  0  0  0  0  0  0  0  0  0  0
    1.7286    0.0000    0.0000 N   0  0  0  0  0  0  0  0  0  0  0  0
    1.0777   -1.3515    0.0000 C   0  0  0  0  0  0  0  0  0  0  0  0
   -0.3846   -1.6852    0.0000 N   0  0  0  0  0  0  0  0  0  0  0  0
   -1.5574   -0.7500    0.0000 C   0  0  0  0  0  0  0  0  0  0  0  0
   -1.5574    0.7500    0.0000 C   0  0  0  0  0  0  0  0  0  0  0  0
   -0.3846    1.6852    0.0000 C   0  0  0  0  0  0  0  0  0  0  0  0
   -0.7184    3.1476    0.0000 C   0  0  0  0  0  0  0  0  0  0  0  0
   -2.0977    3.7372    0.0000 C   0  0  0  0  0  0  0  0  0  0  0  0
   -1.9633    5.2311    0.0000 C   0  0  0  0  0  0  0  0  0  0  0  0
   -0.5009    5.5649    0.0000 C   0  0  0  0  0  0  0  0  0  0  0  0
    0.0887    6.9442    0.0000 N   0  0  0  0  0  0  0  0  0  0  0  0
    1.5511    7.2780    0.0000 N   0  0  0  0  0  0  0  0  0  0  0  0
    1.6855    8.7719    0.0000 N   0  0  0  0  0  0  0  0  0  0  0  0
    0.3062    9.3615    0.0000 N   0  0  0  0  0  0  0  0  0  0  0  0
   -0.6807    8.2319    0.0000 C   0  0  0  0  0  0  0  0  0  0  0  0
   -2.1746    8.3663    0.0000 C   0  0  0  0  0  0  0  0  0  0  0  0
   -3.0381    7.1398    0.0000 C   0  0  0  0  0  0  0  0  0  0  0  0
   -4.5320    7.2742    0.0000 C   0  0  0  0  0  0  0  0  0  0  0  0
   -5.1626    8.6352    0.0000 C   0  0  0  0  0  0  0  0  0  0  0  0
   -6.6565    8.7697    0.0000 C   0  0  0  0  0  0  0  0  0  0  0  0
   -4.2991    9.8618    0.0000 N   0  0  0  0  0  0  0  0  0  0  0  0
   -2.8052    9.7274    0.0000 N   0  0  0  0  0  0  0  0  0  0  0  0
    0.2685    4.2772    0.0000 N   0  0  0  0  0  0  0  0  0  0  0  0
    5.5275    0.6808    0.0000 C   0  0  0  0  0  0  0  0  0  0  0  0
    6.0755   -0.7155    0.0000 C   0  0  0  0  0  0  0  0  0  0  0  0
  1  2  1  0
  2  3  2  0
  3  4  1  0
  4  5  2  0
  5  6  1  0
  6  7  2  0
  7  8  1  0
  8  9  2  0
  9 10  1  0
 10 11  2  0
 11 12  1  0
 12 13  1  0
 13 14  1  0
 14 15  1  0
 15 16  1  0
 16 17  1  0
 17 18  1  0
 18 19  1  0
 19 20  1  0
 20 21  2  0
 21 22  1  0
 22 23  1  0
 23 24  1  0
 24 25  2  0
 25 26  1  0
 26 27  2  0
 27 28  1  0
 28 29  2  0
 29 30  1  0
 30 31  2  0
 31 32  1  0
 31 33  1  0
 33 34  2  0
 22 35  1  0
  5 36  1  0
 36 37  1  0
 37  2  1  0
 11  6  1  0
 18 12  1  0
 35 19  1  0
 27 23  1  0
 34 28  1  0
M  END
>  <Title>  (1087) 
idABPUgen8

$$$$

     RDKit          2D

 23 23  0  0  0  0  0  0  0  0999 V2000
    7.2821   -1.2990    0.0000 C   0  0  0  0  0  0  0  0  0  0  0  0
    6.5321    0.0000    0.0000 O   0  0  0  0  0  0  0  0  0  0  0  0
    5.0321    0.0000    0.0000 N   0  0  0  0  0  0  0  0  0  0  0  0
    4.8086    1.4832    0.0000 C   0  0  0  0  0  0  0  0  0  0  0  0
    4.1577    2.8347    0.0000 C   0  0  0  0  0  0  0  0  0  0  0  0
    3.1375    3.9343    0.0000 C   0  0  0  0  0  0  0  0  0  0  0  0
    1.8384    4.6843    0.0000 C   0  0  0  0  0  0  0  0  0  0  0  0
    0.3761    5.0181    0.0000 C   0  0  0  0  0  0  0  0  0  0  0  0
   -1.1198    4.9060    0.0000 C   0  0  0  0  0  0  0  0  0  0  0  0
   -2.5161    4.3580    0.0000 C   0  0  0  0  0  0  0  0  0  0  0  0
   -3.6888    3.4227    0.0000 C   0  0  0  0  0  0  0  0  0  0  0  0
   -4.5338    2.1834    0.0000 C   0  0  0  0  0  0  0  0  0  0  0  0
   -4.9759    0.7500    0.0000 C   0  0  0  0  0  0  0  0  0  0  0  0
   -4.9759   -0.7500    0.0000 C   0  0  0  0  0  0  0  0  0  0  0  0
   -4.5338   -2.1834    0.0000 C   0  0  0  0  0  0  0  0  0  0  0  0
   -3.6888   -3.4227    0.0000 C   0  0  0  0  0  0  0  0  0  0  0  0
   -2.5161   -4.3580    0.0000 C   0  0  0  0  0  0  0  0  0  0  0  0
   -1.1198   -4.9060    0.0000 C   0  0  0  0  0  0  0  0  0  0  0  0
    0.3761   -5.0181    0.0000 C   0  0  0  0  0  0  0  0  0  0  0  0
    1.8384   -4.6843    0.0000 C   0  0  0  0  0  0  0  0  0  0  0  0
    3.1375   -3.9343    0.0000 C   0  0  0  0  0  0  0  0  0  0  0  0
    4.1577   -2.8347    0.0000 C   0  0  0  0  0  0  0  0  0  0  0  0
    4.8086   -1.4832    0.0000 C   0  0  0  0  0  0  0  0  0  0  0  0
  1  2  1  0
  2  3  1  0
  3  4  1  0
  4  5  2  0
  5  6  1  0
  6  7  2  0
  7  8  1  0
  8  9  2  0
  9 10  1  0
 10 11  2  0
 11 12  1  0
 12 13  2  0
 13 14  1  0
 14 15  2  0
 15 16  1  0
 16 17  2  0
 17 18  1  0
 18 19  2  0
 19 20  1  0
 20 21  1  0
 21 22  1  0
 22 23  1  0
 23  3  1  0
M  END
>  <Title>  (1088) 
idABPVgen8

$$$$

     RDKit          2D

 48 55  0  0  0  0  0  0  0  0999 V2000
    3.2286   -0.0000    0.0000 C   0  0  0  0  0  0  0  0  0  0  0  0
    1.7286    0.0000    0.0000 C   0  0  0  0  0  0  0  0  0  0  0  0
    1.0777    1.3515    0.0000 C   0  0  0  0  0  0  0  0  0  0  0  0
   -0.3846    1.6852    0.0000 C   0  0  0  0  0  0  0  0  0  0  0  0
   -1.5574    0.7500    0.0000 C   0  0  0  0  0  0  0  0  0  0  0  0
   -2.9088    1.4008    0.0000 C   0  0  0  0  0  0  0  0  0  0  0  0
   -4.2297    0.6900    0.0000 N   0  0  0  0  0  0  0  0  0  0  0  0
   -5.3139    1.7266    0.0000 N   0  0  0  0  0  0  0  0  0  0  0  0
   -4.6631    3.0781    0.0000 N   0  0  0  0  0  0  0  0  0  0  0  0
   -3.1767    2.8767    0.0000 N   0  0  0  0  0  0  0  0  0  0  0  0
   -2.1401    3.9609    0.0000 C   0  0  0  0  0  0  0  0  0  0  0  0
   -0.6829    3.6053    0.0000 C   0  0  0  0  0  0  0  0  0  0  0  0
    0.3537    4.6895    0.0000 C   0  0  0  0  0  0  0  0  0  0  0  0
   -0.0669    6.1293    0.0000 C   0  0  0  0  0  0  0  0  0  0  0  0
    0.9697    7.2135    0.0000 C   0  0  0  0  0  0  0  0  0  0  0  0
    0.7019    8.6894    0.0000 N   0  0  0  0  0  0  0  0  0  0  0  0
    2.0228    9.4002    0.0000 N   0  0  0  0  0  0  0  0  0  0  0  0
    3.1069    8.3636    0.0000 N   0  0  0  0  0  0  0  0  0  0  0  0
    2.4561    7.0121    0.0000 N   0  0  0  0  0  0  0  0  0  0  0  0
    3.1669    5.6912    0.0000 C   0  0  0  0  0  0  0  0  0  0  0  0
    2.3784    4.4152    0.0000 C   0  0  0  0  0  0  0  0  0  0  0  0
    3.0892    3.0943    0.0000 C   0  0  0  0  0  0  0  0  0  0  0  0
    4.5885    3.0495    0.0000 C   0  0  0  0  0  0  0  0  0  0  0  0
    5.3771    4.3255    0.0000 C   0  0  0  0  0  0  0  0  0  0  0  0
    4.6663    5.6464    0.0000 C   0  0  0  0  0  0  0  0  0  0  0  0
   -1.5241    6.4849    0.0000 C   0  0  0  0  0  0  0  0  0  0  0  0
   -2.5607    5.4007    0.0000 C   0  0  0  0  0  0  0  0  0  0  0  0
   -4.0180    5.7563    0.0000 C   0  0  0  0  0  0  0  0  0  0  0  0
   -5.1622    4.7864    0.0000 C   0  0  0  0  0  0  0  0  0  0  0  0
   -6.4382    5.5750    0.0000 C   0  0  0  0  0  0  0  0  0  0  0  0
   -6.0826    7.0322    0.0000 C   0  0  0  0  0  0  0  0  0  0  0  0
   -7.0525    8.1765    0.0000 C   0  0  0  0  0  0  0  0  0  0  0  0
   -8.5483    8.0644    0.0000 N   0  0  0  0  0  0  0  0  0  0  0  0
   -9.1171    9.4523    0.0000 N   0  0  0  0  0  0  0  0  0  0  0  0
   -7.9729   10.4222    0.0000 N   0  0  0  0  0  0  0  0  0  0  0  0
   -6.6969    9.6337    0.0000 N   0  0  0  0  0  0  0  0  0  0  0  0
   -5.3089   10.2025    0.0000 C   0  0  0  0  0  0  0  0  0  0  0  0
   -4.1223    9.2849    0.0000 C   0  0  0  0  0  0  0  0  0  0  0  0
   -2.7344    9.8538    0.0000 C   0  0  0  0  0  0  0  0  0  0  0  0
   -2.5330   11.3402    0.0000 C   0  0  0  0  0  0  0  0  0  0  0  0
   -3.7196   12.2578    0.0000 C   0  0  0  0  0  0  0  0  0  0  0  0
   -5.1076   11.6889    0.0000 C   0  0  0  0  0  0  0  0  0  0  0  0
   -4.5868    7.1443    0.0000 C   0  0  0  0  0  0  0  0  0  0  0  0
   -3.7983    8.4203    0.0000 O   0  0  0  0  0  0  0  0  0  0  0  0
   -1.5574   -0.7500    0.0000 N   0  0  0  0  0  0  0  0  0  0  0  0
   -0.3846   -1.6852    0.0000 C   0  0  0  0  0  0  0  0  0  0  0  0
   -0.7184   -3.1476    0.0000 O   0  0  0  0  0  0  0  0  0  0  0  0
    1.0777   -1.3515    0.0000 N   0  0  0  0  0  0  0  0  0  0  0  0
  1  2  1  0
  2  3  2  0
  3  4  1  0
  4  5  2  0
  5  6  1  0
  6  7  2  0
  7  8  1  0
  8  9  2  0
  9 10  1  0
 10 11  1  0
 11 12  2  0
 12 13  1  0
 13 14  2  0
 14 15  1  0
 15 16  2  0
 16 17  1  0
 17 18  2  0
 18 19  1  0
 19 20  1  0
 20 21  2  0
 21 22  1  0
 22 23  2  0
 23 24  1  0
 24 25  2  0
 14 26  1  0
 26 27  2  0
 27 28  1  0
 28 29  2  0
 29 30  1  0
 30 31  2  0
 31 32  1  0
 32 33  2  0
 33 34  1  0
 34 35  2  0
 35 36  1  0
 36 37  1  0
 37 38  2  0
 38 39  1  0
 39 40  2  0
 40 41  1  0
 41 42  2  0
 31 43  1  0
 43 44  2  0
  5 45  1  0
 45 46  1  0
 46 47  2  0
 46 48  1  0
 48  2  1  0
 10  6  1  0
 27 11  1  0
 43 28  1  0
 19 15  1  0
 25 20  1  0
 36 32  1  0
 42 37  1  0
M  END
>  <Title>  (1089) 
idABPWgen8

$$$$

     RDKit          2D

 37 42  0  0  0  0  0  0  0  0999 V2000
    3.0000    0.0000    0.0000 C   0  0  0  0  0  0  0  0  0  0  0  0
    1.5000    0.0000    0.0000 C   0  0  0  0  0  0  0  0  0  0  0  0
    0.7500   -1.2990    0.0000 C   0  0  0  0  0  0  0  0  0  0  0  0
   -0.7500   -1.2990    0.0000 C   0  0  0  0  0  0  0  0  0  0  0  0
   -1.5000    0.0000    0.0000 C   0  0  0  0  0  0  0  0  0  0  0  0
   -3.0000    0.0000    0.0000 C   0  0  0  0  0  0  0  0  0  0  0  0
   -3.8817   -1.2135    0.0000 N   0  0  0  0  0  0  0  0  0  0  0  0
   -5.3083   -0.7500    0.0000 N   0  0  0  0  0  0  0  0  0  0  0  0
   -5.3083    0.7500    0.0000 N   0  0  0  0  0  0  0  0  0  0  0  0
   -3.8817    1.2135    0.0000 N   0  0  0  0  0  0  0  0  0  0  0  0
   -3.4182    2.6401    0.0000 C   0  0  0  0  0  0  0  0  0  0  0  0
   -1.9509    2.9520    0.0000 C   0  0  0  0  0  0  0  0  0  0  0  0
   -1.4874    4.3786    0.0000 C   0  0  0  0  0  0  0  0  0  0  0  0
   -2.4911    5.4933    0.0000 C   0  0  0  0  0  0  0  0  0  0  0  0
   -2.0276    6.9199    0.0000 C   0  0  0  0  0  0  0  0  0  0  0  0
   -3.0313    8.0346    0.0000 O   0  0  0  0  0  0  0  0  0  0  0  0
   -0.5604    7.2317    0.0000 N   0  0  0  0  0  0  0  0  0  0  0  0
   -0.0968    8.6583    0.0000 C   0  0  0  0  0  0  0  0  0  0  0  0
   -0.9785    9.8718    0.0000 N   0  0  0  0  0  0  0  0  0  0  0  0
   -0.0968   11.0854    0.0000 N   0  0  0  0  0  0  0  0  0  0  0  0
    1.3298   10.6218    0.0000 N   0  0  0  0  0  0  0  0  0  0  0  0
    1.3298    9.1218    0.0000 N   0  0  0  0  0  0  0  0  0  0  0  0
    2.5433    8.2402    0.0000 C   0  0  0  0  0  0  0  0  0  0  0  0
    2.5433    6.7402    0.0000 C   0  0  0  0  0  0  0  0  0  0  0  0
    3.9699    6.2766    0.0000 N   0  0  0  0  0  0  0  0  0  0  0  0
    4.8515    7.4902    0.0000 N   0  0  0  0  0  0  0  0  0  0  0  0
    3.9699    8.7037    0.0000 N   0  0  0  0  0  0  0  0  0  0  0  0
    4.4334   10.1303    0.0000 C   0  0  0  0  0  0  0  0  0  0  0  0
    3.4297   11.2450    0.0000 C   0  0  0  0  0  0  0  0  0  0  0  0
    3.8932   12.6716    0.0000 C   0  0  0  0  0  0  0  0  0  0  0  0
    5.3604   12.9834    0.0000 C   0  0  0  0  0  0  0  0  0  0  0  0
    6.3641   11.8687    0.0000 C   0  0  0  0  0  0  0  0  0  0  0  0
    5.9006   10.4421    0.0000 C   0  0  0  0  0  0  0  0  0  0  0  0
   -3.9583    5.1814    0.0000 C   0  0  0  0  0  0  0  0  0  0  0  0
   -4.4218    3.7548    0.0000 C   0  0  0  0  0  0  0  0  0  0  0  0
   -0.7500    1.2990    0.0000 C   0  0  0  0  0  0  0  0  0  0  0  0
    0.7500    1.2990    0.0000 C   0  0  0  0  0  0  0  0  0  0  0  0
  1  2  1  0
  2  3  2  0
  3  4  1  0
  4  5  2  0
  5  6  1  0
  6  7  2  0
  7  8  1  0
  8  9  2  0
  9 10  1  0
 10 11  1  0
 11 12  2  0
 12 13  1  0
 13 14  2  0
 14 15  1  0
 15 16  2  0
 15 17  1  0
 17 18  1  0
 18 19  2  0
 19 20  1  0
 20 21  2  0
 21 22  1  0
 22 23  1  0
 23 24  2  0
 24 25  1  0
 25 26  2  0
 26 27  1  0
 27 28  1  0
 28 29  2  0
 29 30  1  0
 30 31  2  0
 31 32  1  0
 32 33  2  0
 14 34  1  0
 34 35  2  0
  5 36  1  0
 36 37  2  0
 37  2  1  0
 10  6  1  0
 35 11  1  0
 22 18  1  0
 27 23  1  0
 33 28  1  0
M  END
>  <Title>  (1090) 
idABPXgen8

$$$$

     RDKit          2D

 15 15  0  0  0  0  0  0  0  0999 V2000
    4.6771   -1.2990    0.0000 C   0  0  0  0  0  0  0  0  0  0  0  0
    3.9271    0.0000    0.0000 O   0  0  0  0  0  0  0  0  0  0  0  0
    2.4271    0.0000    0.0000 C   0  0  0  0  0  0  0  0  0  0  0  0
    1.9635   -1.4266    0.0000 C   0  0  0  0  0  0  0  0  0  0  0  0
    0.7500   -2.3083    0.0000 C   0  0  0  0  0  0  0  0  0  0  0  0
   -0.7500   -2.3083    0.0000 C   0  0  0  0  0  0  0  0  0  0  0  0
   -1.9635   -1.4266    0.0000 C   0  0  0  0  0  0  0  0  0  0  0  0
   -2.4271    0.0000    0.0000 C   0  0  0  0  0  0  0  0  0  0  0  0
   -3.9271    0.0000    0.0000 F   0  0  0  0  0  0  0  0  0  0  0  0
   -1.9635    1.4266    0.0000 C   0  0  0  0  0  0  0  0  0  0  0  0
   -3.1771    2.3083    0.0000 C   0  0  0  0  0  0  0  0  0  0  0  0
   -0.7500    2.3083    0.0000 C   0  0  0  0  0  0  0  0  0  0  0  0
    0.7500    2.3083    0.0000 C   0  0  0  0  0  0  0  0  0  0  0  0
    1.9635    1.4266    0.0000 C   0  0  0  0  0  0  0  0  0  0  0  0
    3.1771    2.3083    0.0000 N   0  0  0  0  0  0  0  0  0  0  0  0
  1  2  1  0
  2  3  1  0
  3  4  2  0
  4  5  1  0
  5  6  2  0
  6  7  1  0
  7  8  2  0
  8  9  1  0
  8 10  1  0
 10 11  1  0
 10 12  2  0
 12 13  1  0
 13 14  2  0
 14 15  1  0
 14  3  1  0
M  END
>  <Title>  (1091) 
idABPYgen8

$$$$

     RDKit          2D

 19 20  0  0  0  0  0  0  0  0999 V2000
    6.3267    6.0801    0.0000 C   0  0  0  0  0  0  0  0  0  0  0  0
    5.1310    5.1744    0.0000 C   0  0  0  0  0  0  0  0  0  0  0  0
    5.3175    3.6860    0.0000 O   0  0  0  0  0  0  0  0  0  0  0  0
    3.7488    5.7570    0.0000 O   0  0  0  0  0  0  0  0  0  0  0  0
    2.5531    4.8513    0.0000 C   0  0  0  0  0  0  0  0  0  0  0  0
    2.9952    3.4180    0.0000 C   0  0  0  0  0  0  0  0  0  0  0  0
    2.4126    2.0358    0.0000 C   0  0  0  0  0  0  0  0  0  0  0  0
    1.0777    1.3515    0.0000 C   0  0  0  0  0  0  0  0  0  0  0  0
    1.7286    0.0000    0.0000 C   0  0  0  0  0  0  0  0  0  0  0  0
    1.0777   -1.3515    0.0000 C   0  0  0  0  0  0  0  0  0  0  0  0
   -0.3846   -1.6852    0.0000 C   0  0  0  0  0  0  0  0  0  0  0  0
   -1.5574   -0.7500    0.0000 C   0  0  0  0  0  0  0  0  0  0  0  0
   -1.5574    0.7500    0.0000 C   0  0  0  0  0  0  0  0  0  0  0  0
   -0.3846    1.6852    0.0000 C   0  0  0  0  0  0  0  0  0  0  0  0
   -1.2904    2.8809    0.0000 C   0  0  0  0  0  0  0  0  0  0  0  0
   -1.2156    4.3791    0.0000 C   0  0  0  0  0  0  0  0  0  0  0  0
   -0.1953    5.4786    0.0000 C   0  0  0  0  0  0  0  0  0  0  0  0
    1.2930    5.6652    0.0000 C   0  0  0  0  0  0  0  0  0  0  0  0
    1.6268    7.1276    0.0000 N   0  0  0  0  0  0  0  0  0  0  0  0
  1  2  1  0
  2  3  2  0
  2  4  1  0
  4  5  1  0
  5  6  2  0
  6  7  1  0
  7  8  2  0
  8  9  1  0
  9 10  2  0
 10 11  1  0
 11 12  2  0
 12 13  1  0
 13 14  2  0
 14 15  1  0
 15 16  2  0
 16 17  1  0
 17 18  2  0
 18 19  1  0
 18  5  1  0
 14  8  1  0
M  END
>  <Title>  (1092) 
idABPZgen8

$$$$

     RDKit          2D

 42 47  0  0  0  0  0  0  0  0999 V2000
   10.7537   -4.0251    0.0000 C   0  0  0  0  0  0  0  0  0  0  0  0
   11.1851   -2.5885    0.0000 C   0  0  0  0  0  0  0  0  0  0  0  0
   10.0779   -1.5765    0.0000 C   0  0  0  0  0  0  0  0  0  0  0  0
   10.1788   -0.0799    0.0000 C   0  0  0  0  0  0  0  0  0  0  0  0
   11.4118    0.7743    0.0000 C   0  0  0  0  0  0  0  0  0  0  0  0
   11.1771    2.2559    0.0000 C   0  0  0  0  0  0  0  0  0  0  0  0
   12.2378    3.3165    0.0000 N   0  0  0  0  0  0  0  0  0  0  0  0
   11.5568    4.6530    0.0000 N   0  0  0  0  0  0  0  0  0  0  0  0
   10.0753    4.4184    0.0000 N   0  0  0  0  0  0  0  0  0  0  0  0
    9.8406    2.9369    0.0000 N   0  0  0  0  0  0  0  0  0  0  0  0
    8.5041    2.2559    0.0000 C   0  0  0  0  0  0  0  0  0  0  0  0
    8.2695    0.7743    0.0000 N   0  0  0  0  0  0  0  0  0  0  0  0
    6.7879    0.5397    0.0000 C   0  0  0  0  0  0  0  0  0  0  0  0
    6.1069   -0.7968    0.0000 C   0  0  0  0  0  0  0  0  0  0  0  0
    6.9239   -2.0548    0.0000 O   0  0  0  0  0  0  0  0  0  0  0  0
    4.6090   -0.8753    0.0000 N   0  0  0  0  0  0  0  0  0  0  0  0
    3.9280   -2.2118    0.0000 C   0  0  0  0  0  0  0  0  0  0  0  0
    4.6090   -3.5483    0.0000 N   0  0  0  0  0  0  0  0  0  0  0  0
    3.5483   -4.6090    0.0000 N   0  0  0  0  0  0  0  0  0  0  0  0
    2.2118   -3.9280    0.0000 N   0  0  0  0  0  0  0  0  0  0  0  0
    2.4465   -2.4465    0.0000 N   0  0  0  0  0  0  0  0  0  0  0  0
    1.3858   -1.3858    0.0000 C   0  0  0  0  0  0  0  0  0  0  0  0
    1.9598    0.0000    0.0000 C   0  0  0  0  0  0  0  0  0  0  0  0
    1.3858    1.3858    0.0000 C   0  0  0  0  0  0  0  0  0  0  0  0
    0.0000    1.9598    0.0000 C   0  0  0  0  0  0  0  0  0  0  0  0
    0.0000    3.4598    0.0000 C   0  0  0  0  0  0  0  0  0  0  0  0
   -1.3858    1.3858    0.0000 C   0  0  0  0  0  0  0  0  0  0  0  0
   -2.4465    2.4465    0.0000 O   0  0  0  0  0  0  0  0  0  0  0  0
   -1.9598    0.0000    0.0000 N   0  0  0  0  0  0  0  0  0  0  0  0
   -1.3858   -1.3858    0.0000 C   0  0  0  0  0  0  0  0  0  0  0  0
   -2.4465   -2.4465    0.0000 O   0  0  0  0  0  0  0  0  0  0  0  0
   -0.0000   -1.9598    0.0000 C   0  0  0  0  0  0  0  0  0  0  0  0
    6.1069    1.8762    0.0000 C   0  0  0  0  0  0  0  0  0  0  0  0
    7.1676    2.9369    0.0000 C   0  0  0  0  0  0  0  0  0  0  0  0
    6.9330    4.4184    0.0000 N   0  0  0  0  0  0  0  0  0  0  0  0
    7.9936    5.4791    0.0000 N   0  0  0  0  0  0  0  0  0  0  0  0
    7.3126    6.8156    0.0000 N   0  0  0  0  0  0  0  0  0  0  0  0
    5.8311    6.5809    0.0000 N   0  0  0  0  0  0  0  0  0  0  0  0
    5.5964    5.0994    0.0000 N   0  0  0  0  0  0  0  0  0  0  0  0
   12.8484    0.3429    0.0000 N   0  0  0  0  0  0  0  0  0  0  0  0
   13.4068   -1.0492    0.0000 C   0  0  0  0  0  0  0  0  0  0  0  0
   12.6666   -2.3538    0.0000 C   0  0  0  0  0  0  0  0  0  0  0  0
  1  2  1  0
  2  3  2  0
  3  4  1  0
  4  5  2  0
  5  6  1  0
  6  7  2  0
  7  8  1  0
  8  9  2  0
  9 10  1  0
 10 11  1  0
 11 12  1  0
 12 13  1  0
 13 14  1  0
 14 15  2  0
 14 16  1  0
 16 17  1  0
 17 18  2  0
 18 19  1  0
 19 20  2  0
 20 21  1  0
 21 22  1  0
 22 23  2  0
 23 24  1  0
 24 25  2  0
 25 26  1  0
 25 27  1  0
 27 28  2  0
 27 29  1  0
 29 30  1  0
 30 31  2  0
 30 32  1  0
 13 33  1  0
 33 34  2  0
 34 35  1  0
 35 36  1  0
 36 37  2  0
 37 38  1  0
 38 39  2  0
  5 40  1  0
 40 41  1  0
 41 42  2  0
 42  2  1  0
 10  6  1  0
 34 11  1  0
 39 35  1  0
 21 17  1  0
 32 22  1  0
M  END
>  <Title>  (1093) 
idABQAgen8

$$$$

     RDKit          2D

 40 44  0  0  0  0  0  0  0  0999 V2000
    3.0000    0.0000    0.0000 C   0  0  0  0  0  0  0  0  0  0  0  0
    1.5000    0.0000    0.0000 C   0  0  0  0  0  0  0  0  0  0  0  0
    0.7500    1.2990    0.0000 C   0  0  0  0  0  0  0  0  0  0  0  0
   -0.7500    1.2990    0.0000 C   0  0  0  0  0  0  0  0  0  0  0  0
   -1.5000    0.0000    0.0000 C   0  0  0  0  0  0  0  0  0  0  0  0
   -3.0000    0.0000    0.0000 N   0  0  0  0  0  0  0  0  0  0  0  0
   -3.8817   -1.2135    0.0000 N   0  0  0  0  0  0  0  0  0  0  0  0
   -5.3083   -0.7500    0.0000 N   0  0  0  0  0  0  0  0  0  0  0  0
   -5.3083    0.7500    0.0000 N   0  0  0  0  0  0  0  0  0  0  0  0
   -3.8817    1.2135    0.0000 C   0  0  0  0  0  0  0  0  0  0  0  0
   -3.4182    2.6401    0.0000 C   0  0  0  0  0  0  0  0  0  0  0  0
   -1.9509    2.9520    0.0000 O   0  0  0  0  0  0  0  0  0  0  0  0
   -4.4218    3.7548    0.0000 N   0  0  0  0  0  0  0  0  0  0  0  0
   -3.9583    5.1814    0.0000 C   0  0  0  0  0  0  0  0  0  0  0  0
   -2.4911    5.4933    0.0000 O   0  0  0  0  0  0  0  0  0  0  0  0
   -4.9620    6.2961    0.0000 C   0  0  0  0  0  0  0  0  0  0  0  0
   -6.4538    6.1393    0.0000 C   0  0  0  0  0  0  0  0  0  0  0  0
   -7.0639    7.5097    0.0000 C   0  0  0  0  0  0  0  0  0  0  0  0
   -5.9492    8.5134    0.0000 C   0  0  0  0  0  0  0  0  0  0  0  0
   -6.1060   10.0051    0.0000 N   0  0  0  0  0  0  0  0  0  0  0  0
   -7.4050   10.7551    0.0000 N   0  0  0  0  0  0  0  0  0  0  0  0
   -7.0932   12.2224    0.0000 N   0  0  0  0  0  0  0  0  0  0  0  0
   -5.6014   12.3791    0.0000 N   0  0  0  0  0  0  0  0  0  0  0  0
   -4.9913   11.0088    0.0000 C   0  0  0  0  0  0  0  0  0  0  0  0
   -3.5240   10.6970    0.0000 N   0  0  0  0  0  0  0  0  0  0  0  0
   -2.5203   11.8117    0.0000 C   0  0  0  0  0  0  0  0  0  0  0  0
   -2.9839   13.2383    0.0000 O   0  0  0  0  0  0  0  0  0  0  0  0
   -1.0531   11.4998    0.0000 C   0  0  0  0  0  0  0  0  0  0  0  0
   -0.5896   10.0732    0.0000 C   0  0  0  0  0  0  0  0  0  0  0  0
    0.8776    9.7614    0.0000 C   0  0  0  0  0  0  0  0  0  0  0  0
    1.8813   10.8761    0.0000 C   0  0  0  0  0  0  0  0  0  0  0  0
    3.3485   10.5642    0.0000 C   0  0  0  0  0  0  0  0  0  0  0  0
    1.4178   12.3027    0.0000 C   0  0  0  0  0  0  0  0  0  0  0  0
    2.4215   13.4174    0.0000 O   0  0  0  0  0  0  0  0  0  0  0  0
   -0.0494   12.6145    0.0000 N   0  0  0  0  0  0  0  0  0  0  0  0
   -4.6502    7.7634    0.0000 C   0  0  0  0  0  0  0  0  0  0  0  0
   -3.2798    8.3735    0.0000 O   0  0  0  0  0  0  0  0  0  0  0  0
   -0.7500   -1.2990    0.0000 C   0  0  0  0  0  0  0  0  0  0  0  0
   -1.5000   -2.5981    0.0000 O   0  0  0  0  0  0  0  0  0  0  0  0
    0.7500   -1.2990    0.0000 N   0  0  0  0  0  0  0  0  0  0  0  0
  1  2  1  0
  2  3  2  0
  3  4  1  0
  4  5  2  0
  5  6  1  0
  6  7  1  0
  7  8  2  0
  8  9  1  0
  9 10  2  0
 10 11  1  0
 11 12  2  0
 11 13  1  0
 13 14  1  0
 14 15  2  0
 14 16  1  0
 16 17  2  0
 17 18  1  0
 18 19  2  0
 19 20  1  0
 20 21  1  0
 21 22  2  0
 22 23  1  0
 23 24  2  0
 24 25  1  0
 25 26  1  0
 26 27  2  0
 26 28  1  0
 28 29  2  0
 29 30  1  0
 30 31  2  0
 31 32  1  0
 31 33  1  0
 33 34  2  0
 33 35  1  0
 19 36  1  0
 36 37  2  0
  5 38  1  0
 38 39  2  0
 38 40  1  0
 40  2  1  0
 10  6  1  0
 36 16  1  0
 24 20  1  0
 35 28  1  0
M  END
>  <Title>  (1094) 
idABQBgen8

$$$$

     RDKit          2D

 41 44  0  0  0  0  0  0  0  0999 V2000
   -2.2871    9.1701    0.0000 C   0  0  0  0  0  0  0  0  0  0  0  0
   -1.4859    7.9020    0.0000 C   0  0  0  0  0  0  0  0  0  0  0  0
   -2.4035    6.7154    0.0000 C   0  0  0  0  0  0  0  0  0  0  0  0
   -2.3437    5.2166    0.0000 C   0  0  0  0  0  0  0  0  0  0  0  0
   -1.3344    4.1069    0.0000 C   0  0  0  0  0  0  0  0  0  0  0  0
    0.1520    3.9056    0.0000 N   0  0  0  0  0  0  0  0  0  0  0  0
    1.4201    4.7068    0.0000 N   0  0  0  0  0  0  0  0  0  0  0  0
    1.8765    6.1356    0.0000 N   0  0  0  0  0  0  0  0  0  0  0  0
    1.3077    7.5236    0.0000 N   0  0  0  0  0  0  0  0  0  0  0  0
   -0.0202    8.2212    0.0000 C   0  0  0  0  0  0  0  0  0  0  0  0
    0.9214    2.6179    0.0000 C   0  0  0  0  0  0  0  0  0  0  0  0
    2.4153    2.7523    0.0000 N   0  0  0  0  0  0  0  0  0  0  0  0
    3.2787    1.5258    0.0000 C   0  0  0  0  0  0  0  0  0  0  0  0
    2.6482    0.1647    0.0000 N   0  0  0  0  0  0  0  0  0  0  0  0
    3.5116   -1.0619    0.0000 O   0  0  0  0  0  0  0  0  0  0  0  0
    4.7727    1.6602    0.0000 N   0  0  0  0  0  0  0  0  0  0  0  0
    5.6361    0.4336    0.0000 N   0  0  0  0  0  0  0  0  0  0  0  0
    7.1301    0.5681    0.0000 N   0  0  0  0  0  0  0  0  0  0  0  0
    7.9935   -0.6585    0.0000 N   0  0  0  0  0  0  0  0  0  0  0  0
    9.4875   -0.5240    0.0000 N   0  0  0  0  0  0  0  0  0  0  0  0
   10.3509   -1.7506    0.0000 N   0  0  0  0  0  0  0  0  0  0  0  0
   11.8449   -1.6161    0.0000 N   0  0  0  0  0  0  0  0  0  0  0  0
   12.7083   -2.8427    0.0000 N   0  0  0  0  0  0  0  0  0  0  0  0
   14.2023   -2.7083    0.0000 N   0  0  0  0  0  0  0  0  0  0  0  0
   15.0657   -3.9348    0.0000 N   0  0  0  0  0  0  0  0  0  0  0  0
   16.5596   -3.8004    0.0000 N   0  0  0  0  0  0  0  0  0  0  0  0
   17.4231   -5.0270    0.0000 N   0  0  0  0  0  0  0  0  0  0  0  0
   18.9170   -4.8925    0.0000 N   0  0  0  0  0  0  0  0  0  0  0  0
   19.7805   -6.1191    0.0000 N   0  0  0  0  0  0  0  0  0  0  0  0
   21.2744   -5.9846    0.0000 N   0  0  0  0  0  0  0  0  0  0  0  0
   22.1378   -7.2112    0.0000 N   0  0  0  0  0  0  0  0  0  0  0  0
    0.3943    1.2135    0.0000 N   0  0  0  0  0  0  0  0  0  0  0  0
    1.2760    0.0000    0.0000 N   0  0  0  0  0  0  0  0  0  0  0  0
    0.3943   -1.2135    0.0000 N   0  0  0  0  0  0  0  0  0  0  0  0
   -1.0323   -0.7500    0.0000 C   0  0  0  0  0  0  0  0  0  0  0  0
   -1.0323    0.7500    0.0000 C   0  0  0  0  0  0  0  0  0  0  0  0
   -2.2841    1.5763    0.0000 N   0  0  0  0  0  0  0  0  0  0  0  0
   -3.6634    0.9868    0.0000 N   0  0  0  0  0  0  0  0  0  0  0  0
   -4.6503    2.1164    0.0000 N   0  0  0  0  0  0  0  0  0  0  0  0
   -3.8810    3.4041    0.0000 N   0  0  0  0  0  0  0  0  0  0  0  0
   -2.4186    3.0703    0.0000 C   0  0  0  0  0  0  0  0  0  0  0  0
  1  2  1  0
  2  3  2  0
  3  4  1  0
  4  5  2  0
  5  6  1  0
  6  7  1  0
  7  8  2  0
  8  9  1  0
  9 10  2  0
  6 11  1  0
 11 12  1  0
 12 13  1  0
 13 14  1  0
 14 15  1  0
 13 16  1  0
 16 17  1  0
 17 18  1  0
 18 19  1  0
 19 20  1  0
 20 21  1  0
 21 22  1  0
 22 23  1  0
 23 24  1  0
 24 25  1  0
 25 26  1  0
 26 27  1  0
 27 28  1  0
 28 29  1  0
 29 30  1  0
 30 31  1  0
 11 32  1  0
 32 33  1  0
 33 34  2  0
 34 35  1  0
 35 36  2  0
 36 37  1  0
 37 38  1  0
 38 39  2  0
 39 40  1  0
 40 41  2  0
 10  2  1  0
 36 32  1  0
 41 37  1  0
 41  5  1  0
M  END
>  <Title>  (1095) 
idABQCgen8

$$$$

     RDKit          2D

 52 58  0  0  0  0  0  0  0  0999 V2000
    0.8311   10.2038    0.0000 C   0  0  0  0  0  0  0  0  0  0  0  0
   -0.5392    9.5937    0.0000 C   0  0  0  0  0  0  0  0  0  0  0  0
   -1.7527   10.4753    0.0000 C   0  0  0  0  0  0  0  0  0  0  0  0
   -3.1230    9.8652    0.0000 C   0  0  0  0  0  0  0  0  0  0  0  0
   -3.2798    8.3735    0.0000 C   0  0  0  0  0  0  0  0  0  0  0  0
   -4.6502    7.7634    0.0000 C   0  0  0  0  0  0  0  0  0  0  0  0
   -5.9492    8.5134    0.0000 N   0  0  0  0  0  0  0  0  0  0  0  0
   -7.0639    7.5097    0.0000 N   0  0  0  0  0  0  0  0  0  0  0  0
   -6.4538    6.1393    0.0000 N   0  0  0  0  0  0  0  0  0  0  0  0
   -4.9620    6.2961    0.0000 N   0  0  0  0  0  0  0  0  0  0  0  0
   -3.9583    5.1814    0.0000 C   0  0  0  0  0  0  0  0  0  0  0  0
   -2.4911    5.4933    0.0000 C   0  0  0  0  0  0  0  0  0  0  0  0
   -1.4874    4.3786    0.0000 C   0  0  0  0  0  0  0  0  0  0  0  0
   -1.9509    2.9520    0.0000 C   0  0  0  0  0  0  0  0  0  0  0  0
   -3.4182    2.6401    0.0000 C   0  0  0  0  0  0  0  0  0  0  0  0
   -4.4218    3.7548    0.0000 C   0  0  0  0  0  0  0  0  0  0  0  0
   -5.8891    3.4430    0.0000 C   0  0  0  0  0  0  0  0  0  0  0  0
   -6.8928    4.5577    0.0000 C   0  0  0  0  0  0  0  0  0  0  0  0
   -8.3600    4.2458    0.0000 C   0  0  0  0  0  0  0  0  0  0  0  0
   -8.8235    2.8192    0.0000 C   0  0  0  0  0  0  0  0  0  0  0  0
  -10.2907    2.5074    0.0000 C   0  0  0  0  0  0  0  0  0  0  0  0
  -11.2944    3.6221    0.0000 N   0  0  0  0  0  0  0  0  0  0  0  0
  -12.7617    3.3102    0.0000 C   0  0  0  0  0  0  0  0  0  0  0  0
  -13.2252    1.8836    0.0000 O   0  0  0  0  0  0  0  0  0  0  0  0
  -13.7653    4.4249    0.0000 C   0  0  0  0  0  0  0  0  0  0  0  0
  -13.3018    5.8515    0.0000 C   0  0  0  0  0  0  0  0  0  0  0  0
  -14.3055    6.9662    0.0000 C   0  0  0  0  0  0  0  0  0  0  0  0
  -15.7727    6.6544    0.0000 C   0  0  0  0  0  0  0  0  0  0  0  0
  -16.2363    5.2278    0.0000 C   0  0  0  0  0  0  0  0  0  0  0  0
  -15.2326    4.1131    0.0000 C   0  0  0  0  0  0  0  0  0  0  0  0
  -15.6961    2.6865    0.0000 C   0  0  0  0  0  0  0  0  0  0  0  0
  -14.8144    1.4729    0.0000 C   0  0  0  0  0  0  0  0  0  0  0  0
  -15.6961    0.2594    0.0000 C   0  0  0  0  0  0  0  0  0  0  0  0
  -17.1227    0.7229    0.0000 C   0  0  0  0  0  0  0  0  0  0  0  0
  -18.3362   -0.1587    0.0000 C   0  0  0  0  0  0  0  0  0  0  0  0
  -19.7065    0.4514    0.0000 N   0  0  0  0  0  0  0  0  0  0  0  0
  -20.9200   -0.4303    0.0000 C   0  0  0  0  0  0  0  0  0  0  0  0
  -20.7633   -1.9221    0.0000 O   0  0  0  0  0  0  0  0  0  0  0  0
  -22.2904    0.1798    0.0000 C   0  0  0  0  0  0  0  0  0  0  0  0
  -22.4472    1.6716    0.0000 C   0  0  0  0  0  0  0  0  0  0  0  0
  -23.8175    2.2817    0.0000 C   0  0  0  0  0  0  0  0  0  0  0  0
  -25.0310    1.4000    0.0000 C   0  0  0  0  0  0  0  0  0  0  0  0
  -24.8742   -0.0918    0.0000 C   0  0  0  0  0  0  0  0  0  0  0  0
  -23.5039   -0.7019    0.0000 C   0  0  0  0  0  0  0  0  0  0  0  0
  -17.1227    2.2229    0.0000 C   0  0  0  0  0  0  0  0  0  0  0  0
  -18.3362    3.1046    0.0000 O   0  0  0  0  0  0  0  0  0  0  0  0
   -7.8198    1.7045    0.0000 N   0  0  0  0  0  0  0  0  0  0  0  0
   -6.3526    2.0164    0.0000 C   0  0  0  0  0  0  0  0  0  0  0  0
   -5.3489    0.9017    0.0000 O   0  0  0  0  0  0  0  0  0  0  0  0
   -2.0663    7.4918    0.0000 N   0  0  0  0  0  0  0  0  0  0  0  0
   -0.6960    8.1019    0.0000 C   0  0  0  0  0  0  0  0  0  0  0  0
    0.5175    7.2202    0.0000 O   0  0  0  0  0  0  0  0  0  0  0  0
  1  2  1  0
  2  3  2  0
  3  4  1  0
  4  5  2  0
  5  6  1  0
  6  7  2  0
  7  8  1  0
  8  9  2  0
  9 10  1  0
 10 11  1  0
 11 12  1  0
 12 13  1  0
 13 14  1  0
 14 15  1  0
 15 16  1  0
 16 17  1  0
 17 18  2  0
 18 19  1  0
 19 20  2  0
 20 21  1  0
 21 22  1  0
 22 23  1  0
 23 24  2  0
 23 25  1  0
 25 26  2  0
 26 27  1  0
 27 28  2  0
 28 29  1  0
 29 30  2  0
 30 31  1  0
 31 32  2  0
 32 33  1  0
 33 34  2  0
 34 35  1  0
 35 36  1  0
 36 37  1  0
 37 38  2  0
 37 39  1  0
 39 40  2  0
 40 41  1  0
 41 42  2  0
 42 43  1  0
 43 44  2  0
 34 45  1  0
 45 46  2  0
 20 47  1  0
 47 48  1  0
 48 49  2  0
  5 50  1  0
 50 51  1  0
 51 52  2  0
 51  2  1  0
 10  6  1  0
 16 11  1  0
 48 17  1  0
 30 25  1  0
 45 31  1  0
 44 39  1  0
M  END
>  <Title>  (1096) 
idABQDgen8

$$$$

     RDKit          2D

 32 36  0  0  0  0  0  0  0  0999 V2000
    3.0000    0.0000    0.0000 C   0  0  0  0  0  0  0  0  0  0  0  0
    1.5000    0.0000    0.0000 C   0  0  0  0  0  0  0  0  0  0  0  0
    0.7500   -1.2990    0.0000 C   0  0  0  0  0  0  0  0  0  0  0  0
   -0.7500   -1.2990    0.0000 C   0  0  0  0  0  0  0  0  0  0  0  0
   -1.5000    0.0000    0.0000 C   0  0  0  0  0  0  0  0  0  0  0  0
   -3.0000    0.0000    0.0000 C   0  0  0  0  0  0  0  0  0  0  0  0
   -3.8817   -1.2135    0.0000 N   0  0  0  0  0  0  0  0  0  0  0  0
   -5.3083   -0.7500    0.0000 N   0  0  0  0  0  0  0  0  0  0  0  0
   -5.3083    0.7500    0.0000 N   0  0  0  0  0  0  0  0  0  0  0  0
   -3.8817    1.2135    0.0000 N   0  0  0  0  0  0  0  0  0  0  0  0
   -3.4182    2.6401    0.0000 C   0  0  0  0  0  0  0  0  0  0  0  0
   -1.9509    2.9520    0.0000 C   0  0  0  0  0  0  0  0  0  0  0  0
   -1.4874    4.3786    0.0000 C   0  0  0  0  0  0  0  0  0  0  0  0
   -2.4911    5.4933    0.0000 C   0  0  0  0  0  0  0  0  0  0  0  0
   -2.0276    6.9199    0.0000 C   0  0  0  0  0  0  0  0  0  0  0  0
   -3.0313    8.0346    0.0000 O   0  0  0  0  0  0  0  0  0  0  0  0
   -0.5604    7.2317    0.0000 N   0  0  0  0  0  0  0  0  0  0  0  0
   -0.0968    8.6583    0.0000 C   0  0  0  0  0  0  0  0  0  0  0  0
   -0.9785    9.8718    0.0000 N   0  0  0  0  0  0  0  0  0  0  0  0
   -0.0968   11.0854    0.0000 N   0  0  0  0  0  0  0  0  0  0  0  0
    1.3298   10.6218    0.0000 N   0  0  0  0  0  0  0  0  0  0  0  0
    1.3298    9.1218    0.0000 N   0  0  0  0  0  0  0  0  0  0  0  0
    2.5433    8.2402    0.0000 C   0  0  0  0  0  0  0  0  0  0  0  0
    2.3865    6.7484    0.0000 C   0  0  0  0  0  0  0  0  0  0  0  0
    3.6000    5.8667    0.0000 C   0  0  0  0  0  0  0  0  0  0  0  0
    4.9703    6.4768    0.0000 C   0  0  0  0  0  0  0  0  0  0  0  0
    5.1271    7.9686    0.0000 C   0  0  0  0  0  0  0  0  0  0  0  0
    3.9136    8.8503    0.0000 C   0  0  0  0  0  0  0  0  0  0  0  0
   -3.9583    5.1814    0.0000 C   0  0  0  0  0  0  0  0  0  0  0  0
   -4.4218    3.7548    0.0000 C   0  0  0  0  0  0  0  0  0  0  0  0
   -0.7500    1.2990    0.0000 C   0  0  0  0  0  0  0  0  0  0  0  0
    0.7500    1.2990    0.0000 C   0  0  0  0  0  0  0  0  0  0  0  0
  1  2  1  0
  2  3  2  0
  3  4  1  0
  4  5  2  0
  5  6  1  0
  6  7  2  0
  7  8  1  0
  8  9  2  0
  9 10  1  0
 10 11  1  0
 11 12  2  0
 12 13  1  0
 13 14  2  0
 14 15  1  0
 15 16  2  0
 15 17  1  0
 17 18  1  0
 18 19  2  0
 19 20  1  0
 20 21  2  0
 21 22  1  0
 22 23  1  0
 23 24  2  0
 24 25  1  0
 25 26  2  0
 26 27  1  0
 27 28  2  0
 14 29  1  0
 29 30  2  0
  5 31  1  0
 31 32  2  0
 32  2  1  0
 10  6  1  0
 30 11  1  0
 22 18  1  0
 28 23  1  0
M  END
>  <Title>  (1097) 
idABQEgen8

$$$$

     RDKit          2D

 29 29  0  0  0  0  0  0  0  0999 V2000
    8.1986    0.0000    0.0000 C   0  0  0  0  0  0  0  0  0  0  0  0
    6.6986    0.0000    0.0000 C   0  0  0  0  0  0  0  0  0  0  0  0
    6.5306   -1.4906    0.0000 C   0  0  0  0  0  0  0  0  0  0  0  0
    6.0352   -2.9064    0.0000 C   0  0  0  0  0  0  0  0  0  0  0  0
    5.2371   -4.1765    0.0000 C   0  0  0  0  0  0  0  0  0  0  0  0
    4.1765   -5.2371    0.0000 C   0  0  0  0  0  0  0  0  0  0  0  0
    2.9064   -6.0352    0.0000 C   0  0  0  0  0  0  0  0  0  0  0  0
    1.4906   -6.5306    0.0000 C   0  0  0  0  0  0  0  0  0  0  0  0
   -0.0000   -6.6986    0.0000 C   0  0  0  0  0  0  0  0  0  0  0  0
   -1.4906   -6.5306    0.0000 C   0  0  0  0  0  0  0  0  0  0  0  0
   -2.9064   -6.0352    0.0000 C   0  0  0  0  0  0  0  0  0  0  0  0
   -4.1765   -5.2371    0.0000 C   0  0  0  0  0  0  0  0  0  0  0  0
   -5.2371   -4.1765    0.0000 C   0  0  0  0  0  0  0  0  0  0  0  0
   -6.0352   -2.9064    0.0000 C   0  0  0  0  0  0  0  0  0  0  0  0
   -6.5306   -1.4906    0.0000 C   0  0  0  0  0  0  0  0  0  0  0  0
   -6.6986    0.0000    0.0000 C   0  0  0  0  0  0  0  0  0  0  0  0
   -6.5306    1.4906    0.0000 C   0  0  0  0  0  0  0  0  0  0  0  0
   -6.0352    2.9064    0.0000 C   0  0  0  0  0  0  0  0  0  0  0  0
   -5.2371    4.1765    0.0000 C   0  0  0  0  0  0  0  0  0  0  0  0
   -4.1765    5.2371    0.0000 C   0  0  0  0  0  0  0  0  0  0  0  0
   -2.9064    6.0352    0.0000 C   0  0  0  0  0  0  0  0  0  0  0  0
   -1.4906    6.5306    0.0000 C   0  0  0  0  0  0  0  0  0  0  0  0
    0.0000    6.6986    0.0000 C   0  0  0  0  0  0  0  0  0  0  0  0
    1.4906    6.5306    0.0000 C   0  0  0  0  0  0  0  0  0  0  0  0
    2.9064    6.0352    0.0000 C   0  0  0  0  0  0  0  0  0  0  0  0
    4.1765    5.2371    0.0000 C   0  0  0  0  0  0  0  0  0  0  0  0
    5.2371    4.1765    0.0000 C   0  0  0  0  0  0  0  0  0  0  0  0
    6.0352    2.9064    0.0000 C   0  0  0  0  0  0  0  0  0  0  0  0
    6.5306    1.4906    0.0000 N   0  0  0  0  0  0  0  0  0  0  0  0
  1  2  1  0
  2  3  2  0
  3  4  1  0
  4  5  2  0
  5  6  1  0
  6  7  2  0
  7  8  1  0
  8  9  2  0
  9 10  1  0
 10 11  2  0
 11 12  1  0
 12 13  2  0
 13 14  1  0
 14 15  2  0
 15 16  1  0
 16 17  2  0
 17 18  1  0
 18 19  2  0
 19 20  1  0
 20 21  2  0
 21 22  1  0
 22 23  2  0
 23 24  1  0
 24 25  2  0
 25 26  1  0
 26 27  2  0
 27 28  1  0
 28 29  1  0
 29  2  1  0
M  END
>  <Title>  (1098) 
idABQFgen8

$$$$

     RDKit          2D

 46 52  0  0  0  0  0  0  0  0999 V2000
    3.7500   -1.2990    0.0000 C   0  0  0  0  0  0  0  0  0  0  0  0
    3.0000    0.0000    0.0000 O   0  0  0  0  0  0  0  0  0  0  0  0
    1.5000    0.0000    0.0000 C   0  0  0  0  0  0  0  0  0  0  0  0
    0.7500   -1.2990    0.0000 C   0  0  0  0  0  0  0  0  0  0  0  0
   -0.7500   -1.2990    0.0000 C   0  0  0  0  0  0  0  0  0  0  0  0
   -1.5000    0.0000    0.0000 C   0  0  0  0  0  0  0  0  0  0  0  0
   -3.0000    0.0000    0.0000 C   0  0  0  0  0  0  0  0  0  0  0  0
   -3.8817   -1.2135    0.0000 N   0  0  0  0  0  0  0  0  0  0  0  0
   -5.3083   -0.7500    0.0000 N   0  0  0  0  0  0  0  0  0  0  0  0
   -5.3083    0.7500    0.0000 N   0  0  0  0  0  0  0  0  0  0  0  0
   -3.8817    1.2135    0.0000 N   0  0  0  0  0  0  0  0  0  0  0  0
   -3.4182    2.6401    0.0000 C   0  0  0  0  0  0  0  0  0  0  0  0
   -4.2998    3.8536    0.0000 C   0  0  0  0  0  0  0  0  0  0  0  0
   -3.4182    5.0672    0.0000 C   0  0  0  0  0  0  0  0  0  0  0  0
   -1.9916    4.6036    0.0000 C   0  0  0  0  0  0  0  0  0  0  0  0
   -0.7780    5.4853    0.0000 C   0  0  0  0  0  0  0  0  0  0  0  0
    0.5923    4.8752    0.0000 O   0  0  0  0  0  0  0  0  0  0  0  0
   -0.9348    6.9771    0.0000 N   0  0  0  0  0  0  0  0  0  0  0  0
    0.2787    7.8588    0.0000 C   0  0  0  0  0  0  0  0  0  0  0  0
    1.7053    7.3952    0.0000 N   0  0  0  0  0  0  0  0  0  0  0  0
    2.5870    8.6088    0.0000 N   0  0  0  0  0  0  0  0  0  0  0  0
    1.7053    9.8223    0.0000 N   0  0  0  0  0  0  0  0  0  0  0  0
    0.2787    9.3588    0.0000 N   0  0  0  0  0  0  0  0  0  0  0  0
   -0.9348   10.2405    0.0000 C   0  0  0  0  0  0  0  0  0  0  0  0
   -2.3614    9.7769    0.0000 C   0  0  0  0  0  0  0  0  0  0  0  0
   -3.2431   10.9905    0.0000 C   0  0  0  0  0  0  0  0  0  0  0  0
   -2.3614   12.2040    0.0000 C   0  0  0  0  0  0  0  0  0  0  0  0
   -2.8249   13.6306    0.0000 C   0  0  0  0  0  0  0  0  0  0  0  0
   -1.8212   14.7453    0.0000 N   0  0  0  0  0  0  0  0  0  0  0  0
   -2.2848   16.1719    0.0000 N   0  0  0  0  0  0  0  0  0  0  0  0
   -3.7520   16.4837    0.0000 N   0  0  0  0  0  0  0  0  0  0  0  0
   -4.7557   15.3690    0.0000 N   0  0  0  0  0  0  0  0  0  0  0  0
   -4.2922   13.9424    0.0000 C   0  0  0  0  0  0  0  0  0  0  0  0
   -5.2959   12.8277    0.0000 C   0  0  0  0  0  0  0  0  0  0  0  0
   -6.7631   13.1396    0.0000 C   0  0  0  0  0  0  0  0  0  0  0  0
   -7.7668   12.0249    0.0000 C   0  0  0  0  0  0  0  0  0  0  0  0
   -7.3033   10.5983    0.0000 C   0  0  0  0  0  0  0  0  0  0  0  0
   -5.8360   10.2864    0.0000 C   0  0  0  0  0  0  0  0  0  0  0  0
   -4.8323   11.4011    0.0000 C   0  0  0  0  0  0  0  0  0  0  0  0
   -0.9348   11.7405    0.0000 C   0  0  0  0  0  0  0  0  0  0  0  0
    0.2787   12.6221    0.0000 O   0  0  0  0  0  0  0  0  0  0  0  0
   -1.9916    3.1036    0.0000 C   0  0  0  0  0  0  0  0  0  0  0  0
   -0.7780    2.2220    0.0000 O   0  0  0  0  0  0  0  0  0  0  0  0
   -0.7500    1.2990    0.0000 N   0  0  0  0  0  0  0  0  0  0  0  0
    0.7500    1.2990    0.0000 C   0  0  0  0  0  0  0  0  0  0  0  0
    1.5000    2.5981    0.0000 O   0  0  0  0  0  0  0  0  0  0  0  0
  1  2  1  0
  2  3  1  0
  3  4  2  0
  4  5  1  0
  5  6  2  0
  6  7  1  0
  7  8  2  0
  8  9  1  0
  9 10  2  0
 10 11  1  0
 11 12  1  0
 12 13  2  0
 13 14  1  0
 14 15  2  0
 15 16  1  0
 16 17  2  0
 16 18  1  0
 18 19  1  0
 19 20  2  0
 20 21  1  0
 21 22  2  0
 22 23  1  0
 23 24  1  0
 24 25  2  0
 25 26  1  0
 26 27  2  0
 27 28  1  0
 28 29  2  0
 29 30  1  0
 30 31  2  0
 31 32  1  0
 32 33  2  0
 33 34  1  0
 34 35  2  0
 35 36  1  0
 36 37  2  0
 37 38  1  0
 38 39  2  0
 27 40  1  0
 40 41  2  0
 15 42  1  0
 42 43  2  0
  6 44  1  0
 44 45  1  0
 45 46  2  0
 45  3  1  0
 11  7  1  0
 42 12  1  0
 23 19  1  0
 40 24  1  0
 33 28  1  0
 39 34  1  0
M  END
>  <Title>  (1099) 
idABQGgen8

$$$$

     RDKit          2D

 14 14  0  0  0  0  0  0  0  0999 V2000
    4.6771   -1.2990    0.0000 C   0  0  0  0  0  0  0  0  0  0  0  0
    3.9271    0.0000    0.0000 O   0  0  0  0  0  0  0  0  0  0  0  0
    2.4271    0.0000    0.0000 C   0  0  0  0  0  0  0  0  0  0  0  0
    1.9635   -1.4266    0.0000 C   0  0  0  0  0  0  0  0  0  0  0  0
    3.1771   -2.3083    0.0000 C   0  0  0  0  0  0  0  0  0  0  0  0
    0.7500   -2.3083    0.0000 C   0  0  0  0  0  0  0  0  0  0  0  0
   -0.7500   -2.3083    0.0000 C   0  0  0  0  0  0  0  0  0  0  0  0
   -1.9635   -1.4266    0.0000 C   0  0  0  0  0  0  0  0  0  0  0  0
   -2.4271    0.0000    0.0000 C   0  0  0  0  0  0  0  0  0  0  0  0
   -1.9635    1.4266    0.0000 C   0  0  0  0  0  0  0  0  0  0  0  0
   -0.7500    2.3083    0.0000 C   0  0  0  0  0  0  0  0  0  0  0  0
    0.7500    2.3083    0.0000 C   0  0  0  0  0  0  0  0  0  0  0  0
    1.9635    1.4266    0.0000 C   0  0  0  0  0  0  0  0  0  0  0  0
    3.1771    2.3083    0.0000 O   0  0  0  0  0  0  0  0  0  0  0  0
  1  2  1  0
  2  3  1  0
  3  4  2  0
  4  5  1  0
  4  6  1  0
  6  7  2  0
  7  8  1  0
  8  9  2  0
  9 10  1  0
 10 11  2  0
 11 12  1  0
 12 13  2  0
 13 14  1  0
 13  3  1  0
M  END
>  <Title>  (1100) 
idABQHgen8

$$$$

     RDKit          2D

 38 42  0  0  0  0  0  0  0  0999 V2000
    3.0000    0.0000    0.0000 C   0  0  0  0  0  0  0  0  0  0  0  0
    1.5000    0.0000    0.0000 C   0  0  0  0  0  0  0  0  0  0  0  0
    0.7500   -1.2990    0.0000 C   0  0  0  0  0  0  0  0  0  0  0  0
   -0.7500   -1.2990    0.0000 C   0  0  0  0  0  0  0  0  0  0  0  0
   -1.5000    0.0000    0.0000 C   0  0  0  0  0  0  0  0  0  0  0  0
   -3.0000    0.0000    0.0000 C   0  0  0  0  0  0  0  0  0  0  0  0
   -3.8817   -1.2135    0.0000 N   0  0  0  0  0  0  0  0  0  0  0  0
   -5.3083   -0.7500    0.0000 N   0  0  0  0  0  0  0  0  0  0  0  0
   -5.3083    0.7500    0.0000 N   0  0  0  0  0  0  0  0  0  0  0  0
   -3.8817    1.2135    0.0000 N   0  0  0  0  0  0  0  0  0  0  0  0
   -3.4182    2.6401    0.0000 C   0  0  0  0  0  0  0  0  0  0  0  0
   -4.2998    3.8536    0.0000 C   0  0  0  0  0  0  0  0  0  0  0  0
   -3.4182    5.0672    0.0000 C   0  0  0  0  0  0  0  0  0  0  0  0
   -1.9916    4.6036    0.0000 C   0  0  0  0  0  0  0  0  0  0  0  0
   -0.7780    5.4853    0.0000 C   0  0  0  0  0  0  0  0  0  0  0  0
    0.5923    4.8752    0.0000 O   0  0  0  0  0  0  0  0  0  0  0  0
   -0.9348    6.9771    0.0000 N   0  0  0  0  0  0  0  0  0  0  0  0
    0.2787    7.8588    0.0000 C   0  0  0  0  0  0  0  0  0  0  0  0
    1.7053    7.3952    0.0000 N   0  0  0  0  0  0  0  0  0  0  0  0
    2.5870    8.6088    0.0000 N   0  0  0  0  0  0  0  0  0  0  0  0
    1.7053    9.8223    0.0000 N   0  0  0  0  0  0  0  0  0  0  0  0
    0.2787    9.3588    0.0000 N   0  0  0  0  0  0  0  0  0  0  0  0
   -0.9348   10.2405    0.0000 C   0  0  0  0  0  0  0  0  0  0  0  0
   -2.3052    9.6303    0.0000 C   0  0  0  0  0  0  0  0  0  0  0  0
   -3.5187   10.5120    0.0000 C   0  0  0  0  0  0  0  0  0  0  0  0
   -3.3619   12.0038    0.0000 C   0  0  0  0  0  0  0  0  0  0  0  0
   -4.5754   12.8855    0.0000 C   0  0  0  0  0  0  0  0  0  0  0  0
   -5.9457   12.2754    0.0000 O   0  0  0  0  0  0  0  0  0  0  0  0
   -4.4186   14.3773    0.0000 N   0  0  0  0  0  0  0  0  0  0  0  0
   -5.6321   15.2589    0.0000 O   0  0  0  0  0  0  0  0  0  0  0  0
   -1.9916   12.6139    0.0000 N   0  0  0  0  0  0  0  0  0  0  0  0
   -0.7780   11.7322    0.0000 C   0  0  0  0  0  0  0  0  0  0  0  0
    0.5923   12.3423    0.0000 O   0  0  0  0  0  0  0  0  0  0  0  0
   -1.9916    3.1036    0.0000 C   0  0  0  0  0  0  0  0  0  0  0  0
   -0.7780    2.2220    0.0000 O   0  0  0  0  0  0  0  0  0  0  0  0
   -0.7500    1.2990    0.0000 C   0  0  0  0  0  0  0  0  0  0  0  0
    0.7500    1.2990    0.0000 C   0  0  0  0  0  0  0  0  0  0  0  0
    1.5000    2.5981    0.0000 C   0  0  0  0  0  0  0  0  0  0  0  0
  1  2  1  0
  2  3  2  0
  3  4  1  0
  4  5  2  0
  5  6  1  0
  6  7  2  0
  7  8  1  0
  8  9  2  0
  9 10  1  0
 10 11  1  0
 11 12  2  0
 12 13  1  0
 13 14  2  0
 14 15  1  0
 15 16  2  0
 15 17  1  0
 17 18  1  0
 18 19  2  0
 19 20  1  0
 20 21  2  0
 21 22  1  0
 22 23  1  0
 23 24  2  0
 24 25  1  0
 25 26  2  0
 26 27  1  0
 27 28  2  0
 27 29  1  0
 29 30  1  0
 26 31  1  0
 31 32  1  0
 32 33  2  0
 14 34  1  0
 34 35  2  0
  5 36  1  0
 36 37  2  0
 37 38  1  0
 37  2  1  0
 10  6  1  0
 34 11  1  0
 22 18  1  0
 32 23  1  0
M  END
>  <Title>  (1101) 
idABQIgen8

$$$$

     RDKit          2D

 60 69  0  0  0  0  0  0  0  0999 V2000
   -6.5218    1.6317    0.0000 C   0  0  0  0  0  0  0  0  0  0  0  0
   -5.3083    0.7500    0.0000 C   0  0  0  0  0  0  0  0  0  0  0  0
   -5.3083   -0.7500    0.0000 C   0  0  0  0  0  0  0  0  0  0  0  0
   -3.8817   -1.2135    0.0000 C   0  0  0  0  0  0  0  0  0  0  0  0
   -3.0000    0.0000    0.0000 C   0  0  0  0  0  0  0  0  0  0  0  0
   -1.5000    0.0000    0.0000 C   0  0  0  0  0  0  0  0  0  0  0  0
   -0.7500    1.2990    0.0000 C   0  0  0  0  0  0  0  0  0  0  0  0
    0.7500    1.2990    0.0000 C   0  0  0  0  0  0  0  0  0  0  0  0
    1.5000    2.5981    0.0000 C   0  0  0  0  0  0  0  0  0  0  0  0
    2.9918    2.7549    0.0000 N   0  0  0  0  0  0  0  0  0  0  0  0
    3.3037    4.2221    0.0000 N   0  0  0  0  0  0  0  0  0  0  0  0
    2.0046    4.9721    0.0000 N   0  0  0  0  0  0  0  0  0  0  0  0
    0.8899    3.9684    0.0000 N   0  0  0  0  0  0  0  0  0  0  0  0
   -0.5773    4.2803    0.0000 C   0  0  0  0  0  0  0  0  0  0  0  0
   -1.5810    3.1655    0.0000 C   0  0  0  0  0  0  0  0  0  0  0  0
   -3.0482    3.4774    0.0000 C   0  0  0  0  0  0  0  0  0  0  0  0
   -3.5118    4.9040    0.0000 C   0  0  0  0  0  0  0  0  0  0  0  0
   -2.5081    6.0187    0.0000 C   0  0  0  0  0  0  0  0  0  0  0  0
   -1.0409    5.7068    0.0000 C   0  0  0  0  0  0  0  0  0  0  0  0
    1.5000   -0.0000    0.0000 C   0  0  0  0  0  0  0  0  0  0  0  0
    0.7500   -1.2990    0.0000 C   0  0  0  0  0  0  0  0  0  0  0  0
   -0.7500   -1.2990    0.0000 C   0  0  0  0  0  0  0  0  0  0  0  0
   -1.5000   -2.5981    0.0000 C   0  0  0  0  0  0  0  0  0  0  0  0
   -3.0000   -2.5981    0.0000 C   0  0  0  0  0  0  0  0  0  0  0  0
   -3.7500   -3.8971    0.0000 C   0  0  0  0  0  0  0  0  0  0  0  0
   -5.2500   -3.8971    0.0000 C   0  0  0  0  0  0  0  0  0  0  0  0
   -6.1317   -2.6836    0.0000 N   0  0  0  0  0  0  0  0  0  0  0  0
   -7.5583   -3.1471    0.0000 N   0  0  0  0  0  0  0  0  0  0  0  0
   -7.5583   -4.6471    0.0000 N   0  0  0  0  0  0  0  0  0  0  0  0
   -6.1317   -5.1106    0.0000 N   0  0  0  0  0  0  0  0  0  0  0  0
   -5.6682   -6.5372    0.0000 C   0  0  0  0  0  0  0  0  0  0  0  0
   -4.2009   -6.8491    0.0000 C   0  0  0  0  0  0  0  0  0  0  0  0
   -3.7374   -8.2757    0.0000 C   0  0  0  0  0  0  0  0  0  0  0  0
   -4.7411   -9.3904    0.0000 C   0  0  0  0  0  0  0  0  0  0  0  0
   -6.2083   -9.0785    0.0000 C   0  0  0  0  0  0  0  0  0  0  0  0
   -6.6718   -7.6519    0.0000 C   0  0  0  0  0  0  0  0  0  0  0  0
   -8.1391   -7.3401    0.0000 C   0  0  0  0  0  0  0  0  0  0  0  0
   -9.1428   -8.4548    0.0000 C   0  0  0  0  0  0  0  0  0  0  0  0
  -10.6100   -8.1429    0.0000 C   0  0  0  0  0  0  0  0  0  0  0  0
  -11.0735   -6.7163    0.0000 C   0  0  0  0  0  0  0  0  0  0  0  0
  -10.0698   -5.6016    0.0000 C   0  0  0  0  0  0  0  0  0  0  0  0
   -8.6026   -5.9135    0.0000 C   0  0  0  0  0  0  0  0  0  0  0  0
   -3.0000   -5.1962    0.0000 C   0  0  0  0  0  0  0  0  0  0  0  0
   -1.5000   -5.1962    0.0000 C   0  0  0  0  0  0  0  0  0  0  0  0
   -0.7500   -3.8971    0.0000 C   0  0  0  0  0  0  0  0  0  0  0  0
    0.7500   -3.8971    0.0000 N   0  0  0  0  0  0  0  0  0  0  0  0
    1.6317   -2.6836    0.0000 N   0  0  0  0  0  0  0  0  0  0  0  0
    3.0583   -3.1471    0.0000 N   0  0  0  0  0  0  0  0  0  0  0  0
    3.0583   -4.6471    0.0000 N   0  0  0  0  0  0  0  0  0  0  0  0
    1.6317   -5.1106    0.0000 C   0  0  0  0  0  0  0  0  0  0  0  0
    1.1682   -6.5372    0.0000 C   0  0  0  0  0  0  0  0  0  0  0  0
   -0.2991   -6.8491    0.0000 C   0  0  0  0  0  0  0  0  0  0  0  0
   -0.7626   -8.2757    0.0000 C   0  0  0  0  0  0  0  0  0  0  0  0
    0.2411   -9.3904    0.0000 C   0  0  0  0  0  0  0  0  0  0  0  0
   -0.2224  -10.8170    0.0000 C   0  0  0  0  0  0  0  0  0  0  0  0
    1.7083   -9.0785    0.0000 N   0  0  0  0  0  0  0  0  0  0  0  0
    2.1718   -7.6519    0.0000 C   0  0  0  0  0  0  0  0  0  0  0  0
    3.6391   -7.3401    0.0000 O   0  0  0  0  0  0  0  0  0  0  0  0
   -3.8817    1.2135    0.0000 C   0  0  0  0  0  0  0  0  0  0  0  0
   -3.4182    2.6401    0.0000 O   0  0  0  0  0  0  0  0  0  0  0  0
  1  2  1  0
  2  3  2  0
  3  4  1  0
  4  5  2  0
  5  6  1  0
  6  7  2  0
  7  8  1  0
  8  9  1  0
  9 10  2  0
 10 11  1  0
 11 12  2  0
 12 13  1  0
 13 14  1  0
 14 15  2  0
 15 16  1  0
 16 17  2  0
 17 18  1  0
 18 19  2  0
  8 20  2  0
 20 21  1  0
 21 22  2  0
 22 23  1  0
 23 24  2  0
 24 25  1  0
 25 26  1  0
 26 27  2  0
 27 28  1  0
 28 29  2  0
 29 30  1  0
 30 31  1  0
 31 32  2  0
 32 33  1  0
 33 34  2  0
 34 35  1  0
 35 36  2  0
 36 37  1  0
 37 38  2  0
 38 39  1  0
 39 40  2  0
 40 41  1  0
 41 42  2  0
 25 43  2  0
 43 44  1  0
 44 45  2  0
 45 46  1  0
 46 47  1  0
 47 48  2  0
 48 49  1  0
 49 50  2  0
 50 51  1  0
 51 52  2  0
 52 53  1  0
 53 54  2  0
 54 55  1  0
 54 56  1  0
 56 57  1  0
 57 58  2  0
  5 59  1  0
 59 60  2  0
 59  2  1  0
 22  6  1  0
 45 23  1  0
 50 46  1  0
 57 51  1  0
 13  9  1  0
 19 14  1  0
 30 26  1  0
 36 31  1  0
 42 37  1  0
M  END
>  <Title>  (1102) 
idABQJgen8

$$$$

     RDKit          2D

 19 20  0  0  0  0  0  0  0  0999 V2000
    2.8319    5.3209    0.0000 C   0  0  0  0  0  0  0  0  0  0  0  0
    3.2954    3.8943    0.0000 C   0  0  0  0  0  0  0  0  0  0  0  0
    4.7220    3.4307    0.0000 C   0  0  0  0  0  0  0  0  0  0  0  0
    4.7220    1.9307    0.0000 C   0  0  0  0  0  0  0  0  0  0  0  0
    3.2954    1.4672    0.0000 C   0  0  0  0  0  0  0  0  0  0  0  0
    3.6073    0.0000    0.0000 C   0  0  0  0  0  0  0  0  0  0  0  0
    3.2954   -1.4672    0.0000 C   0  0  0  0  0  0  0  0  0  0  0  0
    2.4138   -2.6807    0.0000 C   0  0  0  0  0  0  0  0  0  0  0  0
    1.1147   -3.4307    0.0000 C   0  0  0  0  0  0  0  0  0  0  0  0
   -0.3771   -3.5875    0.0000 C   0  0  0  0  0  0  0  0  0  0  0  0
   -1.8037   -3.1240    0.0000 C   0  0  0  0  0  0  0  0  0  0  0  0
   -2.9184   -2.1203    0.0000 C   0  0  0  0  0  0  0  0  0  0  0  0
   -3.5285   -0.7500    0.0000 C   0  0  0  0  0  0  0  0  0  0  0  0
   -3.5285    0.7500    0.0000 C   0  0  0  0  0  0  0  0  0  0  0  0
   -2.9184    2.1203    0.0000 C   0  0  0  0  0  0  0  0  0  0  0  0
   -1.8037    3.1240    0.0000 C   0  0  0  0  0  0  0  0  0  0  0  0
   -0.3771    3.5875    0.0000 C   0  0  0  0  0  0  0  0  0  0  0  0
    1.1147    3.4307    0.0000 C   0  0  0  0  0  0  0  0  0  0  0  0
    2.4138    2.6807    0.0000 C   0  0  0  0  0  0  0  0  0  0  0  0
  1  2  1  0
  2  3  2  0
  3  4  1  0
  4  5  2  0
  5  6  1  0
  6  7  2  0
  7  8  1  0
  8  9  2  0
  9 10  1  0
 10 11  2  0
 11 12  1  0
 12 13  2  0
 13 14  1  0
 14 15  2  0
 15 16  1  0
 16 17  2  0
 17 18  1  0
 18 19  2  0
 19  2  1  0
 19  5  1  0
M  END
>  <Title>  (1103) 
idABQKgen8

$$$$

     RDKit          2D

 35 35  0  0  0  0  0  0  0  0999 V2000
    9.6285    0.0000    0.0000 C   0  0  0  0  0  0  0  0  0  0  0  0
    8.1285    0.0000    0.0000 C   0  0  0  0  0  0  0  0  0  0  0  0
    7.9901   -1.4936    0.0000 C   0  0  0  0  0  0  0  0  0  0  0  0
    7.5796   -2.9363    0.0000 C   0  0  0  0  0  0  0  0  0  0  0  0
    6.9110   -4.2791    0.0000 C   0  0  0  0  0  0  0  0  0  0  0  0
    6.0070   -5.4761    0.0000 C   0  0  0  0  0  0  0  0  0  0  0  0
    4.8985   -6.4867    0.0000 C   0  0  0  0  0  0  0  0  0  0  0  0
    3.6232   -7.2763    0.0000 C   0  0  0  0  0  0  0  0  0  0  0  0
    2.2245   -7.8182    0.0000 C   0  0  0  0  0  0  0  0  0  0  0  0
    0.7500   -8.0938    0.0000 C   0  0  0  0  0  0  0  0  0  0  0  0
   -0.7500   -8.0938    0.0000 C   0  0  0  0  0  0  0  0  0  0  0  0
   -2.2245   -7.8182    0.0000 C   0  0  0  0  0  0  0  0  0  0  0  0
   -3.6232   -7.2763    0.0000 C   0  0  0  0  0  0  0  0  0  0  0  0
   -4.8985   -6.4867    0.0000 C   0  0  0  0  0  0  0  0  0  0  0  0
   -6.0070   -5.4761    0.0000 C   0  0  0  0  0  0  0  0  0  0  0  0
   -6.9110   -4.2791    0.0000 C   0  0  0  0  0  0  0  0  0  0  0  0
   -7.5796   -2.9363    0.0000 C   0  0  0  0  0  0  0  0  0  0  0  0
   -7.9901   -1.4936    0.0000 C   0  0  0  0  0  0  0  0  0  0  0  0
   -8.1285    0.0000    0.0000 C   0  0  0  0  0  0  0  0  0  0  0  0
   -7.9901    1.4936    0.0000 C   0  0  0  0  0  0  0  0  0  0  0  0
   -7.5796    2.9363    0.0000 C   0  0  0  0  0  0  0  0  0  0  0  0
   -6.9110    4.2791    0.0000 C   0  0  0  0  0  0  0  0  0  0  0  0
   -6.0070    5.4761    0.0000 C   0  0  0  0  0  0  0  0  0  0  0  0
   -4.8985    6.4867    0.0000 C   0  0  0  0  0  0  0  0  0  0  0  0
   -3.6232    7.2763    0.0000 C   0  0  0  0  0  0  0  0  0  0  0  0
   -2.2245    7.8182    0.0000 C   0  0  0  0  0  0  0  0  0  0  0  0
   -0.7500    8.0938    0.0000 C   0  0  0  0  0  0  0  0  0  0  0  0
    0.7500    8.0938    0.0000 C   0  0  0  0  0  0  0  0  0  0  0  0
    2.2245    7.8182    0.0000 C   0  0  0  0  0  0  0  0  0  0  0  0
    3.6232    7.2763    0.0000 C   0  0  0  0  0  0  0  0  0  0  0  0
    4.8985    6.4867    0.0000 C   0  0  0  0  0  0  0  0  0  0  0  0
    6.0070    5.4761    0.0000 C   0  0  0  0  0  0  0  0  0  0  0  0
    6.9110    4.2791    0.0000 C   0  0  0  0  0  0  0  0  0  0  0  0
    7.5796    2.9363    0.0000 C   0  0  0  0  0  0  0  0  0  0  0  0
    7.9901    1.4936    0.0000 N   0  0  0  0  0  0  0  0  0  0  0  0
  1  2  1  0
  2  3  2  0
  3  4  1  0
  4  5  2  0
  5  6  1  0
  6  7  2  0
  7  8  1  0
  8  9  2  0
  9 10  1  0
 10 11  2  0
 11 12  1  0
 12 13  2  0
 13 14  1  0
 14 15  2  0
 15 16  1  0
 16 17  2  0
 17 18  1  0
 18 19  2  0
 19 20  1  0
 20 21  2  0
 21 22  1  0
 22 23  2  0
 23 24  1  0
 24 25  2  0
 25 26  1  0
 26 27  2  0
 27 28  1  0
 28 29  2  0
 29 30  1  0
 30 31  2  0
 31 32  1  0
 32 33  2  0
 33 34  1  0
 34 35  2  0
 35  2  1  0
M  END
>  <Title>  (1104) 
idABQLgen8

$$$$

     RDKit          2D

 42 46  0  0  0  0  0  0  0  0999 V2000
    3.0000    0.0000    0.0000 C   0  0  0  0  0  0  0  0  0  0  0  0
    1.5000    0.0000    0.0000 C   0  0  0  0  0  0  0  0  0  0  0  0
    0.7500   -1.2990    0.0000 C   0  0  0  0  0  0  0  0  0  0  0  0
   -0.7500   -1.2990    0.0000 C   0  0  0  0  0  0  0  0  0  0  0  0
   -1.5000    0.0000    0.0000 C   0  0  0  0  0  0  0  0  0  0  0  0
   -3.0000    0.0000    0.0000 C   0  0  0  0  0  0  0  0  0  0  0  0
   -3.7500   -1.2990    0.0000 O   0  0  0  0  0  0  0  0  0  0  0  0
   -3.7500    1.2990    0.0000 N   0  0  0  0  0  0  0  0  0  0  0  0
   -5.2500    1.2990    0.0000 C   0  0  0  0  0  0  0  0  0  0  0  0
   -6.1317    0.0855    0.0000 N   0  0  0  0  0  0  0  0  0  0  0  0
   -7.5583    0.5490    0.0000 N   0  0  0  0  0  0  0  0  0  0  0  0
   -7.5583    2.0490    0.0000 N   0  0  0  0  0  0  0  0  0  0  0  0
   -6.1317    2.5126    0.0000 N   0  0  0  0  0  0  0  0  0  0  0  0
   -5.6682    3.9391    0.0000 C   0  0  0  0  0  0  0  0  0  0  0  0
   -4.2009    4.2510    0.0000 C   0  0  0  0  0  0  0  0  0  0  0  0
   -3.7374    5.6776    0.0000 C   0  0  0  0  0  0  0  0  0  0  0  0
   -4.7411    6.7923    0.0000 C   0  0  0  0  0  0  0  0  0  0  0  0
   -4.2776    8.2189    0.0000 C   0  0  0  0  0  0  0  0  0  0  0  0
   -5.2813    9.3336    0.0000 O   0  0  0  0  0  0  0  0  0  0  0  0
   -2.8104    8.5308    0.0000 N   0  0  0  0  0  0  0  0  0  0  0  0
   -2.3468    9.9574    0.0000 O   0  0  0  0  0  0  0  0  0  0  0  0
   -6.2083    6.4805    0.0000 N   0  0  0  0  0  0  0  0  0  0  0  0
   -6.6718    5.0539    0.0000 N   0  0  0  0  0  0  0  0  0  0  0  0
   -8.1391    4.7420    0.0000 C   0  0  0  0  0  0  0  0  0  0  0  0
   -8.7492    3.3717    0.0000 C   0  0  0  0  0  0  0  0  0  0  0  0
  -10.2410    3.5285    0.0000 N   0  0  0  0  0  0  0  0  0  0  0  0
  -10.5528    4.9957    0.0000 N   0  0  0  0  0  0  0  0  0  0  0  0
   -9.2538    5.7457    0.0000 N   0  0  0  0  0  0  0  0  0  0  0  0
   -9.0970    7.2375    0.0000 C   0  0  0  0  0  0  0  0  0  0  0  0
   -7.7267    7.8476    0.0000 C   0  0  0  0  0  0  0  0  0  0  0  0
   -7.5699    9.3394    0.0000 C   0  0  0  0  0  0  0  0  0  0  0  0
   -8.7834   10.2210    0.0000 C   0  0  0  0  0  0  0  0  0  0  0  0
   -8.6266   11.7128    0.0000 C   0  0  0  0  0  0  0  0  0  0  0  0
   -9.8401   12.5945    0.0000 O   0  0  0  0  0  0  0  0  0  0  0  0
   -7.2563   12.3229    0.0000 N   0  0  0  0  0  0  0  0  0  0  0  0
   -7.0995   13.8147    0.0000 O   0  0  0  0  0  0  0  0  0  0  0  0
  -10.1537    9.6109    0.0000 C   0  0  0  0  0  0  0  0  0  0  0  0
  -11.3673   10.4926    0.0000 C   0  0  0  0  0  0  0  0  0  0  0  0
  -10.3105    8.1192    0.0000 C   0  0  0  0  0  0  0  0  0  0  0  0
   -0.7500    1.2990    0.0000 C   0  0  0  0  0  0  0  0  0  0  0  0
   -1.5000    2.5981    0.0000 O   0  0  0  0  0  0  0  0  0  0  0  0
    0.7500    1.2990    0.0000 N   0  0  0  0  0  0  0  0  0  0  0  0
  1  2  1  0
  2  3  2  0
  3  4  1  0
  4  5  2  0
  5  6  1  0
  6  7  2  0
  6  8  1  0
  8  9  1  0
  9 10  2  0
 10 11  1  0
 11 12  2  0
 12 13  1  0
 13 14  1  0
 14 15  2  0
 15 16  1  0
 16 17  2  0
 17 18  1  0
 18 19  2  0
 18 20  1  0
 20 21  1  0
 17 22  1  0
 22 23  1  0
 23 24  1  0
 24 25  2  0
 25 26  1  0
 26 27  2  0
 27 28  1  0
 28 29  1  0
 29 30  2  0
 30 31  1  0
 31 32  2  0
 32 33  1  0
 33 34  2  0
 33 35  1  0
 35 36  1  0
 32 37  1  0
 37 38  1  0
 37 39  2  0
  5 40  1  0
 40 41  2  0
 40 42  1  0
 42  2  1  0
 13  9  1  0
 23 14  1  0
 28 24  1  0
 39 29  1  0
M  END
>  <Title>  (1105) 
idABQMgen8

$$$$

     RDKit          2D

 61 69  0  0  0  0  0  0  0  0999 V2000
    3.2286   -0.0000    0.0000 C   0  0  0  0  0  0  0  0  0  0  0  0
    1.7286    0.0000    0.0000 C   0  0  0  0  0  0  0  0  0  0  0  0
    1.0777    1.3515    0.0000 C   0  0  0  0  0  0  0  0  0  0  0  0
   -0.3846    1.6852    0.0000 C   0  0  0  0  0  0  0  0  0  0  0  0
   -1.5574    0.7500    0.0000 C   0  0  0  0  0  0  0  0  0  0  0  0
   -2.9088    1.4008    0.0000 C   0  0  0  0  0  0  0  0  0  0  0  0
   -4.2297    0.6900    0.0000 N   0  0  0  0  0  0  0  0  0  0  0  0
   -5.3139    1.7266    0.0000 N   0  0  0  0  0  0  0  0  0  0  0  0
   -4.6631    3.0781    0.0000 N   0  0  0  0  0  0  0  0  0  0  0  0
   -3.1767    2.8767    0.0000 N   0  0  0  0  0  0  0  0  0  0  0  0
   -2.1401    3.9609    0.0000 C   0  0  0  0  0  0  0  0  0  0  0  0
   -0.6829    3.6053    0.0000 C   0  0  0  0  0  0  0  0  0  0  0  0
    0.3537    4.6895    0.0000 C   0  0  0  0  0  0  0  0  0  0  0  0
   -0.0669    6.1293    0.0000 C   0  0  0  0  0  0  0  0  0  0  0  0
    0.9697    7.2135    0.0000 C   0  0  0  0  0  0  0  0  0  0  0  0
    0.7019    8.6894    0.0000 N   0  0  0  0  0  0  0  0  0  0  0  0
    2.0228    9.4002    0.0000 N   0  0  0  0  0  0  0  0  0  0  0  0
    3.1069    8.3636    0.0000 N   0  0  0  0  0  0  0  0  0  0  0  0
    2.4561    7.0121    0.0000 N   0  0  0  0  0  0  0  0  0  0  0  0
    3.1669    5.6912    0.0000 C   0  0  0  0  0  0  0  0  0  0  0  0
    2.3784    4.4152    0.0000 C   0  0  0  0  0  0  0  0  0  0  0  0
    3.0892    3.0943    0.0000 C   0  0  0  0  0  0  0  0  0  0  0  0
    4.5885    3.0495    0.0000 C   0  0  0  0  0  0  0  0  0  0  0  0
    5.3771    4.3255    0.0000 C   0  0  0  0  0  0  0  0  0  0  0  0
    4.6663    5.6464    0.0000 C   0  0  0  0  0  0  0  0  0  0  0  0
    5.4548    6.9224    0.0000 C   0  0  0  0  0  0  0  0  0  0  0  0
    6.9541    6.8775    0.0000 C   0  0  0  0  0  0  0  0  0  0  0  0
    7.7426    8.1535    0.0000 C   0  0  0  0  0  0  0  0  0  0  0  0
    7.0318    9.4744    0.0000 C   0  0  0  0  0  0  0  0  0  0  0  0
    7.8204   10.7505    0.0000 C   0  0  0  0  0  0  0  0  0  0  0  0
    7.1096   12.0713    0.0000 O   0  0  0  0  0  0  0  0  0  0  0  0
    9.3197   10.7056    0.0000 N   0  0  0  0  0  0  0  0  0  0  0  0
   10.1082   11.9816    0.0000 O   0  0  0  0  0  0  0  0  0  0  0  0
    5.5325    9.5193    0.0000 C   0  0  0  0  0  0  0  0  0  0  0  0
    4.7440    8.2433    0.0000 C   0  0  0  0  0  0  0  0  0  0  0  0
   -1.5241    6.4849    0.0000 C   0  0  0  0  0  0  0  0  0  0  0  0
   -2.5607    5.4007    0.0000 C   0  0  0  0  0  0  0  0  0  0  0  0
   -4.0180    5.7563    0.0000 C   0  0  0  0  0  0  0  0  0  0  0  0
   -5.1622    4.7864    0.0000 C   0  0  0  0  0  0  0  0  0  0  0  0
   -6.4382    5.5750    0.0000 C   0  0  0  0  0  0  0  0  0  0  0  0
   -6.0826    7.0322    0.0000 C   0  0  0  0  0  0  0  0  0  0  0  0
   -7.0525    8.1765    0.0000 C   0  0  0  0  0  0  0  0  0  0  0  0
   -8.5284    7.9086    0.0000 O   0  0  0  0  0  0  0  0  0  0  0  0
   -6.5465    9.5885    0.0000 N   0  0  0  0  0  0  0  0  0  0  0  0
   -7.5164   10.7328    0.0000 C   0  0  0  0  0  0  0  0  0  0  0  0
   -9.0122   10.6207    0.0000 N   0  0  0  0  0  0  0  0  0  0  0  0
   -9.5811   12.0086    0.0000 N   0  0  0  0  0  0  0  0  0  0  0  0
   -8.4368   12.9785    0.0000 N   0  0  0  0  0  0  0  0  0  0  0  0
   -7.1608   12.1900    0.0000 N   0  0  0  0  0  0  0  0  0  0  0  0
   -5.7728   12.7588    0.0000 C   0  0  0  0  0  0  0  0  0  0  0  0
   -4.5862   11.8413    0.0000 C   0  0  0  0  0  0  0  0  0  0  0  0
   -3.1983   12.4101    0.0000 C   0  0  0  0  0  0  0  0  0  0  0  0
   -2.9969   13.8965    0.0000 C   0  0  0  0  0  0  0  0  0  0  0  0
   -4.1835   14.8141    0.0000 C   0  0  0  0  0  0  0  0  0  0  0  0
   -5.5715   14.2453    0.0000 C   0  0  0  0  0  0  0  0  0  0  0  0
   -4.5868    7.1443    0.0000 C   0  0  0  0  0  0  0  0  0  0  0  0
   -3.7983    8.4203    0.0000 O   0  0  0  0  0  0  0  0  0  0  0  0
   -1.5574   -0.7500    0.0000 N   0  0  0  0  0  0  0  0  0  0  0  0
   -0.3846   -1.6852    0.0000 C   0  0  0  0  0  0  0  0  0  0  0  0
   -0.7184   -3.1476    0.0000 O   0  0  0  0  0  0  0  0  0  0  0  0
    1.0777   -1.3515    0.0000 N   0  0  0  0  0  0  0  0  0  0  0  0
  1  2  1  0
  2  3  2  0
  3  4  1  0
  4  5  2  0
  5  6  1  0
  6  7  2  0
  7  8  1  0
  8  9  2  0
  9 10  1  0
 10 11  1  0
 11 12  2  0
 12 13  1  0
 13 14  2  0
 14 15  1  0
 15 16  2  0
 16 17  1  0
 17 18  2  0
 18 19  1  0
 19 20  1  0
 20 21  2  0
 21 22  1  0
 22 23  2  0
 23 24  1  0
 24 25  2  0
 25 26  1  0
 26 27  2  0
 27 28  1  0
 28 29  2  0
 29 30  1  0
 30 31  2  0
 30 32  1  0
 32 33  1  0
 29 34  1  0
 34 35  1  0
 14 36  1  0
 36 37  2  0
 37 38  1  0
 38 39  2  0
 39 40  1  0
 40 41  2  0
 41 42  1  0
 42 43  2  0
 42 44  1  0
 44 45  1  0
 45 46  2  0
 46 47  1  0
 47 48  2  0
 48 49  1  0
 49 50  1  0
 50 51  2  0
 51 52  1  0
 52 53  2  0
 53 54  1  0
 54 55  2  0
 41 56  1  0
 56 57  2  0
  5 58  1  0
 58 59  1  0
 59 60  2  0
 59 61  1  0
 61  2  1  0
 10  6  1  0
 37 11  1  0
 56 38  1  0
 19 15  1  0
 25 20  1  0
 35 26  1  0
 49 45  1  0
 55 50  1  0
M  END
>  <Title>  (1106) 
idABQNgen8

$$$$

     RDKit          2D

 62 71  0  0  0  0  0  0  0  0999 V2000
    5.1072   16.1705    0.0000 C   0  0  0  0  0  0  0  0  0  0  0  0
    3.7369   15.5603    0.0000 C   0  0  0  0  0  0  0  0  0  0  0  0
    2.5234   16.4420    0.0000 C   0  0  0  0  0  0  0  0  0  0  0  0
    1.1531   15.8319    0.0000 C   0  0  0  0  0  0  0  0  0  0  0  0
    0.9963   14.3401    0.0000 C   0  0  0  0  0  0  0  0  0  0  0  0
   -0.3740   13.7300    0.0000 C   0  0  0  0  0  0  0  0  0  0  0  0
   -1.6731   14.4800    0.0000 N   0  0  0  0  0  0  0  0  0  0  0  0
   -2.7878   13.4763    0.0000 N   0  0  0  0  0  0  0  0  0  0  0  0
   -2.1777   12.1060    0.0000 N   0  0  0  0  0  0  0  0  0  0  0  0
   -0.6859   12.2628    0.0000 N   0  0  0  0  0  0  0  0  0  0  0  0
    0.3178   11.1481    0.0000 C   0  0  0  0  0  0  0  0  0  0  0  0
    1.8096   11.3049    0.0000 C   0  0  0  0  0  0  0  0  0  0  0  0
    2.4197    9.9346    0.0000 N   0  0  0  0  0  0  0  0  0  0  0  0
    1.3050    8.9309    0.0000 N   0  0  0  0  0  0  0  0  0  0  0  0
    0.0059    9.6809    0.0000 N   0  0  0  0  0  0  0  0  0  0  0  0
   -1.3644    9.0708    0.0000 C   0  0  0  0  0  0  0  0  0  0  0  0
   -2.5779    9.9524    0.0000 C   0  0  0  0  0  0  0  0  0  0  0  0
   -3.9482    9.3423    0.0000 C   0  0  0  0  0  0  0  0  0  0  0  0
   -4.1050    7.8506    0.0000 C   0  0  0  0  0  0  0  0  0  0  0  0
   -2.8915    6.9689    0.0000 C   0  0  0  0  0  0  0  0  0  0  0  0
   -1.5212    7.5790    0.0000 C   0  0  0  0  0  0  0  0  0  0  0  0
   -0.3077    6.6973    0.0000 N   0  0  0  0  0  0  0  0  0  0  0  0
    1.0627    7.3074    0.0000 N   0  0  0  0  0  0  0  0  0  0  0  0
    2.2762    6.4257    0.0000 N   0  0  0  0  0  0  0  0  0  0  0  0
    2.1194    4.9340    0.0000 N   0  0  0  0  0  0  0  0  0  0  0  0
    0.7491    4.3238    0.0000 N   0  0  0  0  0  0  0  0  0  0  0  0
   -0.4645    5.2055    0.0000 N   0  0  0  0  0  0  0  0  0  0  0  0
   -1.8348    4.5954    0.0000 C   0  0  0  0  0  0  0  0  0  0  0  0
   -3.0483    5.4771    0.0000 C   0  0  0  0  0  0  0  0  0  0  0  0
   -4.4186    4.8670    0.0000 C   0  0  0  0  0  0  0  0  0  0  0  0
   -4.5754    3.3752    0.0000 C   0  0  0  0  0  0  0  0  0  0  0  0
   -5.9457    2.7651    0.0000 C   0  0  0  0  0  0  0  0  0  0  0  0
   -6.2576    1.2979    0.0000 N   0  0  0  0  0  0  0  0  0  0  0  0
   -7.7494    1.1411    0.0000 N   0  0  0  0  0  0  0  0  0  0  0  0
   -8.3595    2.5114    0.0000 N   0  0  0  0  0  0  0  0  0  0  0  0
   -7.2448    3.5151    0.0000 N   0  0  0  0  0  0  0  0  0  0  0  0
   -7.4016    5.0069    0.0000 C   0  0  0  0  0  0  0  0  0  0  0  0
   -6.2868    6.0106    0.0000 N   0  0  0  0  0  0  0  0  0  0  0  0
   -6.8969    7.3809    0.0000 N   0  0  0  0  0  0  0  0  0  0  0  0
   -8.3887    7.2241    0.0000 N   0  0  0  0  0  0  0  0  0  0  0  0
   -8.7006    5.7569    0.0000 N   0  0  0  0  0  0  0  0  0  0  0  0
  -10.0709    5.1468    0.0000 C   0  0  0  0  0  0  0  0  0  0  0  0
  -10.2277    3.6550    0.0000 C   0  0  0  0  0  0  0  0  0  0  0  0
  -11.5980    3.0449    0.0000 C   0  0  0  0  0  0  0  0  0  0  0  0
  -12.8116    3.9266    0.0000 N   0  0  0  0  0  0  0  0  0  0  0  0
  -12.6548    5.4184    0.0000 C   0  0  0  0  0  0  0  0  0  0  0  0
  -11.2844    6.0285    0.0000 C   0  0  0  0  0  0  0  0  0  0  0  0
   -3.3619    2.4935    0.0000 C   0  0  0  0  0  0  0  0  0  0  0  0
   -1.9916    3.1036    0.0000 C   0  0  0  0  0  0  0  0  0  0  0  0
   -0.7780    2.2220    0.0000 C   0  0  0  0  0  0  0  0  0  0  0  0
    0.6485    2.6855    0.0000 C   0  0  0  0  0  0  0  0  0  0  0  0
    1.5302    1.4720    0.0000 C   0  0  0  0  0  0  0  0  0  0  0  0
    0.6485    0.2584    0.0000 C   0  0  0  0  0  0  0  0  0  0  0  0
    1.1121   -1.1682    0.0000 C   0  0  0  0  0  0  0  0  0  0  0  0
    0.1084   -2.2829    0.0000 O   0  0  0  0  0  0  0  0  0  0  0  0
    2.5793   -1.4800    0.0000 N   0  0  0  0  0  0  0  0  0  0  0  0
    3.0428   -2.9066    0.0000 O   0  0  0  0  0  0  0  0  0  0  0  0
   -0.7780    0.7220    0.0000 C   0  0  0  0  0  0  0  0  0  0  0  0
   -1.9916   -0.1597    0.0000 O   0  0  0  0  0  0  0  0  0  0  0  0
    2.2098   13.4585    0.0000 N   0  0  0  0  0  0  0  0  0  0  0  0
    3.5801   14.0686    0.0000 C   0  0  0  0  0  0  0  0  0  0  0  0
    4.7936   13.1869    0.0000 O   0  0  0  0  0  0  0  0  0  0  0  0
  1  2  1  0
  2  3  2  0
  3  4  1  0
  4  5  2  0
  5  6  1  0
  6  7  2  0
  7  8  1  0
  8  9  2  0
  9 10  1  0
 10 11  1  0
 11 12  2  0
 12 13  1  0
 13 14  2  0
 14 15  1  0
 15 16  1  0
 16 17  2  0
 17 18  1  0
 18 19  2  0
 19 20  1  0
 20 21  2  0
 21 22  1  0
 22 23  1  0
 23 24  2  0
 24 25  1  0
 25 26  2  0
 26 27  1  0
 27 28  1  0
 28 29  2  0
 29 30  1  0
 30 31  2  0
 31 32  1  0
 32 33  2  0
 33 34  1  0
 34 35  2  0
 35 36  1  0
 36 37  1  0
 37 38  2  0
 38 39  1  0
 39 40  2  0
 40 41  1  0
 41 42  1  0
 42 43  2  0
 43 44  1  0
 44 45  2  0
 45 46  1  0
 46 47  2  0
 31 48  1  0
 48 49  2  0
 49 50  1  0
 50 51  2  0
 51 52  1  0
 52 53  2  0
 53 54  1  0
 54 55  2  0
 54 56  1  0
 56 57  1  0
 53 58  1  0
 58 59  2  0
  5 60  1  0
 60 61  1  0
 61 62  2  0
 61  2  1  0
 10  6  1  0
 15 11  1  0
 21 16  1  0
 27 22  1  0
 49 28  1  0
 58 50  1  0
 36 32  1  0
 41 37  1  0
 47 42  1  0
M  END
>  <Title>  (1107) 
idABQOgen8

$$$$

     RDKit          2D

 25 26  0  0  0  0  0  0  0  0999 V2000
    8.3029    5.1409    0.0000 C   0  0  0  0  0  0  0  0  0  0  0  0
    7.0276    4.3513    0.0000 C   0  0  0  0  0  0  0  0  0  0  0  0
    7.3334    2.8828    0.0000 C   0  0  0  0  0  0  0  0  0  0  0  0
    6.6238    1.5613    0.0000 C   0  0  0  0  0  0  0  0  0  0  0  0
    5.2307    1.0051    0.0000 C   0  0  0  0  0  0  0  0  0  0  0  0
    3.8060    1.4745    0.0000 C   0  0  0  0  0  0  0  0  0  0  0  0
    4.0816    0.0000    0.0000 C   0  0  0  0  0  0  0  0  0  0  0  0
    3.8060   -1.4745    0.0000 C   0  0  0  0  0  0  0  0  0  0  0  0
    3.0164   -2.7498    0.0000 C   0  0  0  0  0  0  0  0  0  0  0  0
    1.8193   -3.6537    0.0000 C   0  0  0  0  0  0  0  0  0  0  0  0
    0.3766   -4.0642    0.0000 C   0  0  0  0  0  0  0  0  0  0  0  0
   -1.1170   -3.9258    0.0000 C   0  0  0  0  0  0  0  0  0  0  0  0
   -2.4597   -3.2572    0.0000 C   0  0  0  0  0  0  0  0  0  0  0  0
   -3.4703   -2.1487    0.0000 C   0  0  0  0  0  0  0  0  0  0  0  0
   -4.0121   -0.7500    0.0000 C   0  0  0  0  0  0  0  0  0  0  0  0
   -4.0121    0.7500    0.0000 C   0  0  0  0  0  0  0  0  0  0  0  0
   -3.4703    2.1487    0.0000 C   0  0  0  0  0  0  0  0  0  0  0  0
   -2.4597    3.2572    0.0000 C   0  0  0  0  0  0  0  0  0  0  0  0
   -1.1170    3.9258    0.0000 C   0  0  0  0  0  0  0  0  0  0  0  0
    0.3766    4.0642    0.0000 C   0  0  0  0  0  0  0  0  0  0  0  0
    1.8193    3.6537    0.0000 C   0  0  0  0  0  0  0  0  0  0  0  0
    3.0164    2.7498    0.0000 C   0  0  0  0  0  0  0  0  0  0  0  0
    3.2312    4.2343    0.0000 O   0  0  0  0  0  0  0  0  0  0  0  0
    4.3501    5.2334    0.0000 C   0  0  0  0  0  0  0  0  0  0  0  0
    5.8493    5.2796    0.0000 N   0  0  0  0  0  0  0  0  0  0  0  0
  1  2  1  0
  2  3  1  0
  3  4  1  0
  4  5  1  0
  5  6  2  0
  6  7  1  0
  7  8  2  0
  8  9  1  0
  9 10  2  0
 10 11  1  0
 11 12  2  0
 12 13  1  0
 13 14  2  0
 14 15  1  0
 15 16  2  0
 16 17  1  0
 17 18  2  0
 18 19  1  0
 19 20  2  0
 20 21  1  0
 21 22  2  0
 22 23  1  0
 23 24  1  0
 24 25  1  0
 25  2  1  0
 22  6  1  0
M  END
>  <Title>  (1108) 
idABQPgen8

$$$$

     RDKit          2D

 19 21  0  0  0  0  0  0  0  0999 V2000
    3.0000    0.0000    0.0000 C   0  0  0  0  0  0  0  0  0  0  0  0
    1.5000    0.0000    0.0000 C   0  0  0  0  0  0  0  0  0  0  0  0
    0.7500    1.2990    0.0000 C   0  0  0  0  0  0  0  0  0  0  0  0
   -0.7500    1.2990    0.0000 C   0  0  0  0  0  0  0  0  0  0  0  0
   -1.5000    0.0000    0.0000 C   0  0  0  0  0  0  0  0  0  0  0  0
   -3.0000    0.0000    0.0000 C   0  0  0  0  0  0  0  0  0  0  0  0
   -3.8817   -1.2135    0.0000 N   0  0  0  0  0  0  0  0  0  0  0  0
   -5.3083   -0.7500    0.0000 N   0  0  0  0  0  0  0  0  0  0  0  0
   -5.3083    0.7500    0.0000 N   0  0  0  0  0  0  0  0  0  0  0  0
   -3.8817    1.2135    0.0000 N   0  0  0  0  0  0  0  0  0  0  0  0
   -3.4182    2.6401    0.0000 C   0  0  0  0  0  0  0  0  0  0  0  0
   -4.2998    3.8536    0.0000 C   0  0  0  0  0  0  0  0  0  0  0  0
   -3.4182    5.0672    0.0000 C   0  0  0  0  0  0  0  0  0  0  0  0
   -1.9916    4.6036    0.0000 C   0  0  0  0  0  0  0  0  0  0  0  0
   -0.7780    5.4853    0.0000 C   0  0  0  0  0  0  0  0  0  0  0  0
   -1.9916    3.1036    0.0000 N   0  0  0  0  0  0  0  0  0  0  0  0
   -0.7500   -1.2990    0.0000 C   0  0  0  0  0  0  0  0  0  0  0  0
   -1.5000   -2.5981    0.0000 O   0  0  0  0  0  0  0  0  0  0  0  0
    0.7500   -1.2990    0.0000 N   0  0  0  0  0  0  0  0  0  0  0  0
  1  2  1  0
  2  3  2  0
  3  4  1  0
  4  5  2  0
  5  6  1  0
  6  7  2  0
  7  8  1  0
  8  9  2  0
  9 10  1  0
 10 11  1  0
 11 12  1  0
 12 13  1  0
 13 14  1  0
 14 15  1  0
 14 16  1  0
  5 17  1  0
 17 18  2  0
 17 19  1  0
 19  2  1  0
 10  6  1  0
 16 11  1  0
M  END
>  <Title>  (1109) 
idABQQgen8

$$$$

     RDKit          2D

 17 17  0  0  0  0  0  0  0  0999 V2000
    5.3444    0.0000    0.0000 C   0  0  0  0  0  0  0  0  0  0  0  0
    3.8444    0.0000    0.0000 C   0  0  0  0  0  0  0  0  0  0  0  0
    3.5517   -1.4712    0.0000 C   0  0  0  0  0  0  0  0  0  0  0  0
    2.7184   -2.7184    0.0000 C   0  0  0  0  0  0  0  0  0  0  0  0
    1.4712   -3.5517    0.0000 C   0  0  0  0  0  0  0  0  0  0  0  0
   -0.0000   -3.8444    0.0000 C   0  0  0  0  0  0  0  0  0  0  0  0
   -1.4712   -3.5517    0.0000 C   0  0  0  0  0  0  0  0  0  0  0  0
   -2.7184   -2.7184    0.0000 C   0  0  0  0  0  0  0  0  0  0  0  0
   -3.5517   -1.4712    0.0000 C   0  0  0  0  0  0  0  0  0  0  0  0
   -3.8444    0.0000    0.0000 C   0  0  0  0  0  0  0  0  0  0  0  0
   -3.5517    1.4712    0.0000 C   0  0  0  0  0  0  0  0  0  0  0  0
   -2.7184    2.7184    0.0000 C   0  0  0  0  0  0  0  0  0  0  0  0
   -1.4712    3.5517    0.0000 C   0  0  0  0  0  0  0  0  0  0  0  0
    0.0000    3.8444    0.0000 C   0  0  0  0  0  0  0  0  0  0  0  0
    1.4712    3.5517    0.0000 C   0  0  0  0  0  0  0  0  0  0  0  0
    2.7184    2.7184    0.0000 C   0  0  0  0  0  0  0  0  0  0  0  0
    3.5517    1.4712    0.0000 N   0  0  0  0  0  0  0  0  0  0  0  0
  1  2  1  0
  2  3  2  0
  3  4  1  0
  4  5  2  0
  5  6  2  0
  6  7  2  0
  7  8  1  0
  8  9  2  0
  9 10  1  0
 10 11  2  0
 11 12  1  0
 12 13  2  0
 13 14  1  0
 14 15  2  0
 15 16  1  0
 16 17  1  0
 17  2  1  0
M  END
>  <Title>  (1110) 
idABQRgen8

$$$$

     RDKit          2D

 36 36  0  0  0  0  0  0  0  0999 V2000
   10.3785   -1.2990    0.0000 C   0  0  0  0  0  0  0  0  0  0  0  0
    9.6285    0.0000    0.0000 O   0  0  0  0  0  0  0  0  0  0  0  0
    8.1285    0.0000    0.0000 C   0  0  0  0  0  0  0  0  0  0  0  0
    7.9901   -1.4936    0.0000 C   0  0  0  0  0  0  0  0  0  0  0  0
    7.5796   -2.9363    0.0000 C   0  0  0  0  0  0  0  0  0  0  0  0
    6.9110   -4.2791    0.0000 C   0  0  0  0  0  0  0  0  0  0  0  0
    6.0070   -5.4761    0.0000 C   0  0  0  0  0  0  0  0  0  0  0  0
    4.8985   -6.4867    0.0000 C   0  0  0  0  0  0  0  0  0  0  0  0
    3.6232   -7.2763    0.0000 C   0  0  0  0  0  0  0  0  0  0  0  0
    2.2245   -7.8182    0.0000 C   0  0  0  0  0  0  0  0  0  0  0  0
    0.7500   -8.0938    0.0000 C   0  0  0  0  0  0  0  0  0  0  0  0
   -0.7500   -8.0938    0.0000 C   0  0  0  0  0  0  0  0  0  0  0  0
   -2.2245   -7.8182    0.0000 C   0  0  0  0  0  0  0  0  0  0  0  0
   -3.6232   -7.2763    0.0000 C   0  0  0  0  0  0  0  0  0  0  0  0
   -4.8985   -6.4867    0.0000 C   0  0  0  0  0  0  0  0  0  0  0  0
   -6.0070   -5.4761    0.0000 C   0  0  0  0  0  0  0  0  0  0  0  0
   -6.9110   -4.2791    0.0000 C   0  0  0  0  0  0  0  0  0  0  0  0
   -7.5796   -2.9363    0.0000 C   0  0  0  0  0  0  0  0  0  0  0  0
   -7.9901   -1.4936    0.0000 C   0  0  0  0  0  0  0  0  0  0  0  0
   -8.1285    0.0000    0.0000 C   0  0  0  0  0  0  0  0  0  0  0  0
   -7.9901    1.4936    0.0000 C   0  0  0  0  0  0  0  0  0  0  0  0
   -7.5796    2.9363    0.0000 C   0  0  0  0  0  0  0  0  0  0  0  0
   -6.9110    4.2791    0.0000 C   0  0  0  0  0  0  0  0  0  0  0  0
   -6.0070    5.4761    0.0000 C   0  0  0  0  0  0  0  0  0  0  0  0
   -4.8985    6.4867    0.0000 C   0  0  0  0  0  0  0  0  0  0  0  0
   -3.6232    7.2763    0.0000 C   0  0  0  0  0  0  0  0  0  0  0  0
   -2.2245    7.8182    0.0000 C   0  0  0  0  0  0  0  0  0  0  0  0
   -0.7500    8.0938    0.0000 C   0  0  0  0  0  0  0  0  0  0  0  0
    0.7500    8.0938    0.0000 C   0  0  0  0  0  0  0  0  0  0  0  0
    2.2245    7.8182    0.0000 C   0  0  0  0  0  0  0  0  0  0  0  0
    3.6232    7.2763    0.0000 C   0  0  0  0  0  0  0  0  0  0  0  0
    4.8985    6.4867    0.0000 C   0  0  0  0  0  0  0  0  0  0  0  0
    6.0070    5.4761    0.0000 C   0  0  0  0  0  0  0  0  0  0  0  0
    6.9110    4.2791    0.0000 C   0  0  0  0  0  0  0  0  0  0  0  0
    7.5796    2.9363    0.0000 C   0  0  0  0  0  0  0  0  0  0  0  0
    7.9901    1.4936    0.0000 C   0  0  0  0  0  0  0  0  0  0  0  0
  1  2  1  0
  2  3  1  0
  3  4  2  0
  4  5  1  0
  5  6  2  0
  6  7  1  0
  7  8  2  0
  8  9  1  0
  9 10  2  0
 10 11  1  0
 11 12  2  0
 12 13  1  0
 13 14  2  0
 14 15  1  0
 15 16  2  0
 16 17  1  0
 17 18  2  0
 18 19  1  0
 19 20  2  0
 20 21  1  0
 21 22  2  0
 22 23  1  0
 23 24  2  0
 24 25  1  0
 25 26  2  0
 26 27  1  0
 27 28  2  0
 28 29  1  0
 29 30  2  0
 30 31  1  0
 31 32  2  0
 32 33  1  0
 33 34  2  0
 34 35  1  0
 35 36  2  0
 36  3  1  0
M  END
>  <Title>  (1111) 
idABQSgen8

$$$$

     RDKit          2D

 44 48  0  0  0  0  0  0  0  0999 V2000
   -8.5733   -0.9246    0.0000 C   0  0  0  0  0  0  0  0  0  0  0  0
   -8.5060    0.5739    0.0000 C   0  0  0  0  0  0  0  0  0  0  0  0
   -9.7701    1.3815    0.0000 C   0  0  0  0  0  0  0  0  0  0  0  0
   -9.7028    2.8799    0.0000 C   0  0  0  0  0  0  0  0  0  0  0  0
   -8.3714    3.5709    0.0000 C   0  0  0  0  0  0  0  0  0  0  0  0
   -8.3041    5.0694    0.0000 C   0  0  0  0  0  0  0  0  0  0  0  0
   -9.5682    5.8769    0.0000 O   0  0  0  0  0  0  0  0  0  0  0  0
   -6.9727    5.7604    0.0000 N   0  0  0  0  0  0  0  0  0  0  0  0
   -6.9054    7.2588    0.0000 C   0  0  0  0  0  0  0  0  0  0  0  0
   -8.0782    8.1941    0.0000 N   0  0  0  0  0  0  0  0  0  0  0  0
   -7.5511    9.5984    0.0000 N   0  0  0  0  0  0  0  0  0  0  0  0
   -6.0526    9.5311    0.0000 N   0  0  0  0  0  0  0  0  0  0  0  0
   -5.6536    8.0852    0.0000 N   0  0  0  0  0  0  0  0  0  0  0  0
   -4.2492    7.5581    0.0000 C   0  0  0  0  0  0  0  0  0  0  0  0
   -4.0035    6.0784    0.0000 C   0  0  0  0  0  0  0  0  0  0  0  0
   -2.5991    5.5513    0.0000 C   0  0  0  0  0  0  0  0  0  0  0  0
   -1.4405    6.5040    0.0000 C   0  0  0  0  0  0  0  0  0  0  0  0
   -0.0362    5.9769    0.0000 C   0  0  0  0  0  0  0  0  0  0  0  0
    1.1225    6.9296    0.0000 O   0  0  0  0  0  0  0  0  0  0  0  0
    0.2096    4.4972    0.0000 N   0  0  0  0  0  0  0  0  0  0  0  0
    1.6139    3.9701    0.0000 C   0  0  0  0  0  0  0  0  0  0  0  0
    2.8658    4.7965    0.0000 N   0  0  0  0  0  0  0  0  0  0  0  0
    4.0385    3.8613    0.0000 N   0  0  0  0  0  0  0  0  0  0  0  0
    3.5115    2.4569    0.0000 N   0  0  0  0  0  0  0  0  0  0  0  0
    2.0130    2.5242    0.0000 N   0  0  0  0  0  0  0  0  0  0  0  0
    1.0777    1.3515    0.0000 C   0  0  0  0  0  0  0  0  0  0  0  0
    1.7286    0.0000    0.0000 C   0  0  0  0  0  0  0  0  0  0  0  0
    1.0777   -1.3515    0.0000 C   0  0  0  0  0  0  0  0  0  0  0  0
   -0.3846   -1.6852    0.0000 C   0  0  0  0  0  0  0  0  0  0  0  0
   -0.7184   -3.1476    0.0000 C   0  0  0  0  0  0  0  0  0  0  0  0
    0.3812   -4.1679    0.0000 O   0  0  0  0  0  0  0  0  0  0  0  0
   -2.1518   -3.5898    0.0000 N   0  0  0  0  0  0  0  0  0  0  0  0
   -2.4856   -5.0522    0.0000 O   0  0  0  0  0  0  0  0  0  0  0  0
   -1.5574   -0.7500    0.0000 C   0  0  0  0  0  0  0  0  0  0  0  0
   -1.5574    0.7500    0.0000 C   0  0  0  0  0  0  0  0  0  0  0  0
   -0.3846    1.6852    0.0000 C   0  0  0  0  0  0  0  0  0  0  0  0
   -0.7184    3.1476    0.0000 O   0  0  0  0  0  0  0  0  0  0  0  0
   -1.6862    7.9837    0.0000 C   0  0  0  0  0  0  0  0  0  0  0  0
   -0.5276    8.9364    0.0000 O   0  0  0  0  0  0  0  0  0  0  0  0
   -3.0906    8.5108    0.0000 N   0  0  0  0  0  0  0  0  0  0  0  0
   -7.1073    2.7634    0.0000 N   0  0  0  0  0  0  0  0  0  0  0  0
   -5.7759    3.4543    0.0000 O   0  0  0  0  0  0  0  0  0  0  0  0
   -7.1746    1.2649    0.0000 C   0  0  0  0  0  0  0  0  0  0  0  0
   -5.9105    0.4574    0.0000 O   0  0  0  0  0  0  0  0  0  0  0  0
  1  2  1  0
  2  3  2  0
  3  4  1  0
  4  5  2  0
  5  6  1  0
  6  7  2  0
  6  8  1  0
  8  9  1  0
  9 10  2  0
 10 11  1  0
 11 12  2  0
 12 13  1  0
 13 14  1  0
 14 15  2  0
 15 16  1  0
 16 17  2  0
 17 18  1  0
 18 19  2  0
 18 20  1  0
 20 21  1  0
 21 22  2  0
 22 23  1  0
 23 24  2  0
 24 25  1  0
 25 26  1  0
 26 27  2  0
 27 28  1  0
 28 29  2  0
 29 30  1  0
 30 31  2  0
 30 32  1  0
 32 33  1  0
 29 34  1  0
 34 35  1  0
 35 36  1  0
 36 37  2  0
 17 38  1  0
 38 39  2  0
 38 40  1  0
  5 41  1  0
 41 42  1  0
 41 43  1  0
 43 44  1  0
 43  2  1  0
 13  9  1  0
 40 14  1  0
 25 21  1  0
 36 26  1  0
M  END
>  <Title>  (1112) 
idABQTgen8

$$$$

     RDKit          2D

 52 59  0  0  0  0  0  0  0  0999 V2000
   -0.0000   -7.0525    0.0000 C   0  0  0  0  0  0  0  0  0  0  0  0
   -0.0000   -5.5525    0.0000 C   0  0  0  0  0  0  0  0  0  0  0  0
    1.4095   -5.0395    0.0000 C   0  0  0  0  0  0  0  0  0  0  0  0
    2.1595   -3.7404    0.0000 C   0  0  0  0  0  0  0  0  0  0  0  0
    1.8991   -2.2632    0.0000 C   0  0  0  0  0  0  0  0  0  0  0  0
    3.1981   -1.5132    0.0000 C   0  0  0  0  0  0  0  0  0  0  0  0
    3.3549   -0.0214    0.0000 N   0  0  0  0  0  0  0  0  0  0  0  0
    4.8221    0.2904    0.0000 N   0  0  0  0  0  0  0  0  0  0  0  0
    5.5721   -1.0086    0.0000 N   0  0  0  0  0  0  0  0  0  0  0  0
    4.5684   -2.1233    0.0000 N   0  0  0  0  0  0  0  0  0  0  0  0
    4.8803   -3.5905    0.0000 C   0  0  0  0  0  0  0  0  0  0  0  0
    6.2506   -4.2007    0.0000 C   0  0  0  0  0  0  0  0  0  0  0  0
    6.0938   -5.6924    0.0000 C   0  0  0  0  0  0  0  0  0  0  0  0
    4.6266   -6.0043    0.0000 C   0  0  0  0  0  0  0  0  0  0  0  0
    4.0165   -7.3746    0.0000 C   0  0  0  0  0  0  0  0  0  0  0  0
    2.5493   -7.6865    0.0000 N   0  0  0  0  0  0  0  0  0  0  0  0
    2.3925   -9.1783    0.0000 N   0  0  0  0  0  0  0  0  0  0  0  0
    3.7628   -9.7884    0.0000 N   0  0  0  0  0  0  0  0  0  0  0  0
    4.7665   -8.6737    0.0000 N   0  0  0  0  0  0  0  0  0  0  0  0
    6.2583   -8.8305    0.0000 C   0  0  0  0  0  0  0  0  0  0  0  0
    7.1400   -7.6169    0.0000 C   0  0  0  0  0  0  0  0  0  0  0  0
    8.6317   -7.7737    0.0000 C   0  0  0  0  0  0  0  0  0  0  0  0
    9.2418   -9.1440    0.0000 N   0  0  0  0  0  0  0  0  0  0  0  0
    8.3602  -10.3576    0.0000 C   0  0  0  0  0  0  0  0  0  0  0  0
    6.8684  -10.2008    0.0000 C   0  0  0  0  0  0  0  0  0  0  0  0
    3.8766   -4.7053    0.0000 C   0  0  0  0  0  0  0  0  0  0  0  0
    2.3848   -4.5485    0.0000 O   0  0  0  0  0  0  0  0  0  0  0  0
    0.7500   -1.2990    0.0000 C   0  0  0  0  0  0  0  0  0  0  0  0
    1.5000    0.0000    0.0000 C   0  0  0  0  0  0  0  0  0  0  0  0
    0.7500    1.2990    0.0000 C   0  0  0  0  0  0  0  0  0  0  0  0
   -0.7500    1.2990    0.0000 C   0  0  0  0  0  0  0  0  0  0  0  0
   -1.5000    2.5981    0.0000 C   0  0  0  0  0  0  0  0  0  0  0  0
   -3.0000    2.5981    0.0000 O   0  0  0  0  0  0  0  0  0  0  0  0
   -0.7500    3.8971    0.0000 N   0  0  0  0  0  0  0  0  0  0  0  0
   -1.5000    5.1962    0.0000 C   0  0  0  0  0  0  0  0  0  0  0  0
   -3.0000    5.1962    0.0000 C   0  0  0  0  0  0  0  0  0  0  0  0
   -3.7500    6.4952    0.0000 C   0  0  0  0  0  0  0  0  0  0  0  0
   -3.0000    7.7942    0.0000 C   0  0  0  0  0  0  0  0  0  0  0  0
   -3.7500    9.0933    0.0000 C   0  0  0  0  0  0  0  0  0  0  0  0
   -1.5000    7.7942    0.0000 C   0  0  0  0  0  0  0  0  0  0  0  0
   -0.7500    6.4952    0.0000 C   0  0  0  0  0  0  0  0  0  0  0  0
    0.7500    6.4952    0.0000 C   0  0  0  0  0  0  0  0  0  0  0  0
    1.5000    5.1962    0.0000 C   0  0  0  0  0  0  0  0  0  0  0  0
    3.0000    5.1962    0.0000 C   0  0  0  0  0  0  0  0  0  0  0  0
    3.7500    6.4952    0.0000 C   0  0  0  0  0  0  0  0  0  0  0  0
    3.0000    7.7942    0.0000 C   0  0  0  0  0  0  0  0  0  0  0  0
    1.5000    7.7942    0.0000 C   0  0  0  0  0  0  0  0  0  0  0  0
   -1.5000    0.0000    0.0000 C   0  0  0  0  0  0  0  0  0  0  0  0
   -0.7500   -1.2990    0.0000 C   0  0  0  0  0  0  0  0  0  0  0  0
   -1.8991   -2.2632    0.0000 N   0  0  0  0  0  0  0  0  0  0  0  0
   -2.1595   -3.7404    0.0000 C   0  0  0  0  0  0  0  0  0  0  0  0
   -1.4095   -5.0395    0.0000 C   0  0  0  0  0  0  0  0  0  0  0  0
  1  2  1  0
  2  3  2  0
  3  4  1  0
  4  5  2  0
  5  6  1  0
  6  7  2  0
  7  8  1  0
  8  9  2  0
  9 10  1  0
 10 11  1  0
 11 12  2  0
 12 13  1  0
 13 14  2  0
 14 15  1  0
 15 16  2  0
 16 17  1  0
 17 18  2  0
 18 19  1  0
 19 20  1  0
 20 21  2  0
 21 22  1  0
 22 23  2  0
 23 24  1  0
 24 25  2  0
 14 26  1  0
 26 27  2  0
  5 28  1  0
 28 29  2  0
 29 30  1  0
 30 31  2  0
 31 32  1  0
 32 33  2  0
 32 34  1  0
 34 35  1  0
 35 36  2  0
 36 37  1  0
 37 38  2  0
 38 39  1  0
 38 40  1  0
 40 41  2  0
 41 42  1  0
 42 43  2  0
 43 44  1  0
 44 45  2  0
 45 46  1  0
 46 47  2  0
 31 48  1  0
 48 49  2  0
 49 50  1  0
 50 51  1  0
 51 52  1  0
 52  2  1  0
 10  6  1  0
 26 11  1  0
 49 28  1  0
 19 15  1  0
 25 20  1  0
 41 35  1  0
 47 42  1  0
M  END
>  <Title>  (1113) 
idABQUgen8

$$$$

     RDKit          2D

 21 23  0  0  0  0  0  0  0  0999 V2000
   -6.0000   -5.1962    0.0000 C   0  0  0  0  0  0  0  0  0  0  0  0
   -5.2500   -3.8971    0.0000 C   0  0  0  0  0  0  0  0  0  0  0  0
   -3.7500   -3.8971    0.0000 C   0  0  0  0  0  0  0  0  0  0  0  0
   -3.0000   -2.5981    0.0000 C   0  0  0  0  0  0  0  0  0  0  0  0
   -3.7500   -1.2990    0.0000 C   0  0  0  0  0  0  0  0  0  0  0  0
   -3.0000    0.0000    0.0000 C   0  0  0  0  0  0  0  0  0  0  0  0
   -3.7500    1.2990    0.0000 C   0  0  0  0  0  0  0  0  0  0  0  0
   -5.2418    1.4558    0.0000 N   0  0  0  0  0  0  0  0  0  0  0  0
   -5.5537    2.9231    0.0000 N   0  0  0  0  0  0  0  0  0  0  0  0
   -4.2546    3.6731    0.0000 N   0  0  0  0  0  0  0  0  0  0  0  0
   -3.1399    2.6694    0.0000 N   0  0  0  0  0  0  0  0  0  0  0  0
   -1.6727    2.9812    0.0000 C   0  0  0  0  0  0  0  0  0  0  0  0
   -0.6690    1.8665    0.0000 C   0  0  0  0  0  0  0  0  0  0  0  0
    0.7982    2.1784    0.0000 C   0  0  0  0  0  0  0  0  0  0  0  0
    1.2618    3.6050    0.0000 C   0  0  0  0  0  0  0  0  0  0  0  0
    2.7290    3.9168    0.0000 C   0  0  0  0  0  0  0  0  0  0  0  0
    0.2581    4.7197    0.0000 C   0  0  0  0  0  0  0  0  0  0  0  0
    0.7216    6.1463    0.0000 O   0  0  0  0  0  0  0  0  0  0  0  0
   -1.2091    4.4078    0.0000 N   0  0  0  0  0  0  0  0  0  0  0  0
   -5.2500   -1.2990    0.0000 N   0  0  0  0  0  0  0  0  0  0  0  0
   -6.0000   -2.5981    0.0000 N   0  0  0  0  0  0  0  0  0  0  0  0
  1  2  1  0
  2  3  2  0
  3  4  1  0
  4  5  2  0
  5  6  1  0
  6  7  1  0
  7  8  2  0
  8  9  1  0
  9 10  2  0
 10 11  1  0
 11 12  1  0
 12 13  2  0
 13 14  1  0
 14 15  2  0
 15 16  1  0
 15 17  1  0
 17 18  2  0
 17 19  1  0
  5 20  1  0
 20 21  2  0
 21  2  1  0
 11  7  1  0
 19 12  1  0
M  END
>  <Title>  (1114) 
idABQVgen8

$$$$

     RDKit          2D

 17 17  0  0  0  0  0  0  0  0999 V2000
    5.6205   -1.2990    0.0000 C   0  0  0  0  0  0  0  0  0  0  0  0
    4.8705    0.0000    0.0000 O   0  0  0  0  0  0  0  0  0  0  0  0
    3.3705    0.0000    0.0000 C   0  0  0  0  0  0  0  0  0  0  0  0
    3.0367   -1.4624    0.0000 C   0  0  0  0  0  0  0  0  0  0  0  0
    2.1015   -2.6351    0.0000 C   0  0  0  0  0  0  0  0  0  0  0  0
    0.7500   -3.2860    0.0000 C   0  0  0  0  0  0  0  0  0  0  0  0
   -0.7500   -3.2860    0.0000 C   0  0  0  0  0  0  0  0  0  0  0  0
   -2.1015   -2.6351    0.0000 C   0  0  0  0  0  0  0  0  0  0  0  0
   -3.0367   -1.4624    0.0000 C   0  0  0  0  0  0  0  0  0  0  0  0
   -3.3705    0.0000    0.0000 C   0  0  0  0  0  0  0  0  0  0  0  0
   -3.0367    1.4624    0.0000 C   0  0  0  0  0  0  0  0  0  0  0  0
   -2.1015    2.6351    0.0000 C   0  0  0  0  0  0  0  0  0  0  0  0
   -0.7500    3.2860    0.0000 C   0  0  0  0  0  0  0  0  0  0  0  0
    0.7500    3.2860    0.0000 C   0  0  0  0  0  0  0  0  0  0  0  0
    2.1015    2.6351    0.0000 C   0  0  0  0  0  0  0  0  0  0  0  0
    3.0367    1.4624    0.0000 C   0  0  0  0  0  0  0  0  0  0  0  0
    4.3881    2.1132    0.0000 O   0  0  0  0  0  0  0  0  0  0  0  0
  1  2  1  0
  2  3  1  0
  3  4  2  0
  4  5  1  0
  5  6  2  0
  6  7  1  0
  7  8  2  0
  8  9  1  0
  9 10  2  0
 10 11  1  0
 11 12  2  0
 12 13  1  0
 13 14  2  0
 14 15  1  0
 15 16  2  0
 16 17  1  0
 16  3  1  0
M  END
>  <Title>  (1115) 
idABQWgen8

$$$$

     RDKit          2D

 43 48  0  0  0  0  0  0  0  0999 V2000
    3.0000    0.0000    0.0000 C   0  0  0  0  0  0  0  0  0  0  0  0
    1.5000    0.0000    0.0000 C   0  0  0  0  0  0  0  0  0  0  0  0
    0.7500    1.2990    0.0000 C   0  0  0  0  0  0  0  0  0  0  0  0
   -0.7500    1.2990    0.0000 C   0  0  0  0  0  0  0  0  0  0  0  0
   -1.5000    0.0000    0.0000 C   0  0  0  0  0  0  0  0  0  0  0  0
   -3.0000    0.0000    0.0000 C   0  0  0  0  0  0  0  0  0  0  0  0
   -3.8817   -1.2135    0.0000 N   0  0  0  0  0  0  0  0  0  0  0  0
   -5.3083   -0.7500    0.0000 N   0  0  0  0  0  0  0  0  0  0  0  0
   -5.3083    0.7500    0.0000 N   0  0  0  0  0  0  0  0  0  0  0  0
   -3.8817    1.2135    0.0000 N   0  0  0  0  0  0  0  0  0  0  0  0
   -3.4182    2.6401    0.0000 C   0  0  0  0  0  0  0  0  0  0  0  0
   -1.9509    2.9520    0.0000 C   0  0  0  0  0  0  0  0  0  0  0  0
   -1.4874    4.3786    0.0000 C   0  0  0  0  0  0  0  0  0  0  0  0
   -2.4911    5.4933    0.0000 C   0  0  0  0  0  0  0  0  0  0  0  0
   -3.9583    5.1814    0.0000 C   0  0  0  0  0  0  0  0  0  0  0  0
   -4.4218    3.7548    0.0000 C   0  0  0  0  0  0  0  0  0  0  0  0
   -5.8891    3.4430    0.0000 C   0  0  0  0  0  0  0  0  0  0  0  0
   -6.8928    4.5577    0.0000 C   0  0  0  0  0  0  0  0  0  0  0  0
   -8.3600    4.2458    0.0000 C   0  0  0  0  0  0  0  0  0  0  0  0
   -8.8235    2.8192    0.0000 C   0  0  0  0  0  0  0  0  0  0  0  0
  -10.2907    2.5074    0.0000 C   0  0  0  0  0  0  0  0  0  0  0  0
  -10.7543    1.0808    0.0000 O   0  0  0  0  0  0  0  0  0  0  0  0
  -11.2944    3.6221    0.0000 N   0  0  0  0  0  0  0  0  0  0  0  0
  -12.7617    3.3102    0.0000 C   0  0  0  0  0  0  0  0  0  0  0  0
  -13.3718    1.9399    0.0000 N   0  0  0  0  0  0  0  0  0  0  0  0
  -14.8635    2.0967    0.0000 N   0  0  0  0  0  0  0  0  0  0  0  0
  -15.1754    3.5639    0.0000 N   0  0  0  0  0  0  0  0  0  0  0  0
  -13.8764    4.3139    0.0000 N   0  0  0  0  0  0  0  0  0  0  0  0
  -13.7196    5.8057    0.0000 C   0  0  0  0  0  0  0  0  0  0  0  0
  -12.3493    6.4158    0.0000 C   0  0  0  0  0  0  0  0  0  0  0  0
  -12.1925    7.9076    0.0000 C   0  0  0  0  0  0  0  0  0  0  0  0
  -13.4060    8.7893    0.0000 C   0  0  0  0  0  0  0  0  0  0  0  0
  -13.2492   10.2810    0.0000 C   0  0  0  0  0  0  0  0  0  0  0  0
  -14.4627   11.1627    0.0000 O   0  0  0  0  0  0  0  0  0  0  0  0
  -11.8789   10.8911    0.0000 N   0  0  0  0  0  0  0  0  0  0  0  0
  -11.7221   12.3829    0.0000 O   0  0  0  0  0  0  0  0  0  0  0  0
  -14.7763    8.1791    0.0000 C   0  0  0  0  0  0  0  0  0  0  0  0
  -14.9331    6.6874    0.0000 C   0  0  0  0  0  0  0  0  0  0  0  0
   -7.8198    1.7045    0.0000 C   0  0  0  0  0  0  0  0  0  0  0  0
   -6.3526    2.0164    0.0000 C   0  0  0  0  0  0  0  0  0  0  0  0
   -0.7500   -1.2990    0.0000 C   0  0  0  0  0  0  0  0  0  0  0  0
   -1.5000   -2.5981    0.0000 O   0  0  0  0  0  0  0  0  0  0  0  0
    0.7500   -1.2990    0.0000 N   0  0  0  0  0  0  0  0  0  0  0  0
  1  2  1  0
  2  3  2  0
  3  4  1  0
  4  5  2  0
  5  6  1  0
  6  7  2  0
  7  8  1  0
  8  9  2  0
  9 10  1  0
 10 11  1  0
 11 12  1  0
 12 13  1  0
 13 14  1  0
 14 15  1  0
 15 16  1  0
 16 17  1  0
 17 18  2  0
 18 19  1  0
 19 20  2  0
 20 21  1  0
 21 22  2  0
 21 23  1  0
 23 24  1  0
 24 25  2  0
 25 26  1  0
 26 27  2  0
 27 28  1  0
 28 29  1  0
 29 30  2  0
 30 31  1  0
 31 32  2  0
 32 33  1  0
 33 34  2  0
 33 35  1  0
 35 36  1  0
 32 37  1  0
 37 38  1  0
 20 39  1  0
 39 40  2  0
  5 41  1  0
 41 42  2  0
 41 43  1  0
 43  2  1  0
 10  6  1  0
 16 11  1  0
 40 17  1  0
 28 24  1  0
 38 29  1  0
M  END
>  <Title>  (1116) 
idABQXgen8

$$$$

     RDKit          2D

 36 40  0  0  0  0  0  0  0  0999 V2000
    7.0660    1.6215    0.0000 C   0  0  0  0  0  0  0  0  0  0  0  0
    6.6777    3.0703    0.0000 O   0  0  0  0  0  0  0  0  0  0  0  0
    5.2289    3.4586    0.0000 C   0  0  0  0  0  0  0  0  0  0  0  0
    4.4789    2.1595    0.0000 C   0  0  0  0  0  0  0  0  0  0  0  0
    3.1798    1.4095    0.0000 C   0  0  0  0  0  0  0  0  0  0  0  0
    1.6798    1.4095    0.0000 C   0  0  0  0  0  0  0  0  0  0  0  0
    2.1929    0.0000    0.0000 C   0  0  0  0  0  0  0  0  0  0  0  0
    1.6798   -1.4095    0.0000 C   0  0  0  0  0  0  0  0  0  0  0  0
    0.3808   -2.1595    0.0000 C   0  0  0  0  0  0  0  0  0  0  0  0
   -1.0964   -1.8991    0.0000 C   0  0  0  0  0  0  0  0  0  0  0  0
   -2.0606   -0.7500    0.0000 C   0  0  0  0  0  0  0  0  0  0  0  0
   -2.0606    0.7500    0.0000 C   0  0  0  0  0  0  0  0  0  0  0  0
   -1.0964    1.8991    0.0000 C   0  0  0  0  0  0  0  0  0  0  0  0
    0.3808    2.1595    0.0000 C   0  0  0  0  0  0  0  0  0  0  0  0
   -0.3692    3.4586    0.0000 C   0  0  0  0  0  0  0  0  0  0  0  0
    1.1111    3.7010    0.0000 C   0  0  0  0  0  0  0  0  0  0  0  0
    1.8444    5.0095    0.0000 C   0  0  0  0  0  0  0  0  0  0  0  0
    2.3672    8.3409    0.0000 C   0  0  0  0  0  0  0  0  0  0  0  0
    1.6798    7.0076    0.0000 C   0  0  0  0  0  0  0  0  0  0  0  0
    3.1798    7.0076    0.0000 C   0  0  0  0  0  0  0  0  0  0  0  0
    4.4789    6.2576    0.0000 C   0  0  0  0  0  0  0  0  0  0  0  0
    5.2289    4.9586    0.0000 C   0  0  0  0  0  0  0  0  0  0  0  0
    0.9143    8.8447    0.0000 C   0  0  0  0  0  0  0  0  0  0  0  0
   -0.0349   10.0062    0.0000 C   0  0  0  0  0  0  0  0  0  0  0  0
   -0.1202   11.5038    0.0000 C   0  0  0  0  0  0  0  0  0  0  0  0
   -1.5779   11.1501    0.0000 N   0  0  0  0  0  0  0  0  0  0  0  0
   -2.6130   10.0645    0.0000 N   0  0  0  0  0  0  0  0  0  0  0  0
   -2.8969    8.5916    0.0000 N   0  0  0  0  0  0  0  0  0  0  0  0
   -2.3394    7.1991    0.0000 N   0  0  0  0  0  0  0  0  0  0  0  0
   -1.1175    6.3290    0.0000 N   0  0  0  0  0  0  0  0  0  0  0  0
    0.3808    6.2576    0.0000 C   0  0  0  0  0  0  0  0  0  0  0  0
   -0.3692    4.9586    0.0000 C   0  0  0  0  0  0  0  0  0  0  0  0
   -1.8181    5.3468    0.0000 O   0  0  0  0  0  0  0  0  0  0  0  0
    1.2973   11.0132    0.0000 C   0  0  0  0  0  0  0  0  0  0  0  0
    2.1674   12.2350    0.0000 O   0  0  0  0  0  0  0  0  0  0  0  0
    2.2246    9.8341    0.0000 N   0  0  0  0  0  0  0  0  0  0  0  0
  1  2  1  0
  2  3  1  0
  3  4  2  0
  4  5  1  0
  5  6  2  0
  6  7  1  0
  7  8  2  0
  8  9  1  0
  9 10  2  0
 10 11  1  0
 11 12  2  0
 12 13  1  0
 13 14  2  0
 14 15  1  0
 15 16  2  0
 16 17  1  0
 17 18  2  0
 18 19  1  0
 19 20  2  0
 20 21  1  0
 21 22  2  0
 22 23  1  0
 23 24  2  0
 24 25  1  0
 25 26  1  0
 26 27  2  0
 27 28  1  0
 28 29  2  0
 29 30  1  0
 30 31  2  0
 31 32  1  0
 32 33  2  0
 25 34  1  0
 34 35  2  0
 34 36  1  0
 22  3  1  0
 14  6  1  0
 32 15  1  0
 36 18  1  0
 31 19  1  0
M  END
>  <Title>  (1117) 
idABQYgen8

$$$$

     RDKit          2D

 25 25  0  0  0  0  0  0  0  0999 V2000
   23.2500  -11.6913    0.0000 O   0  0  0  0  0  0  0  0  0  0  0  0
   21.7500  -11.6913    0.0000 C   0  0  0  0  0  0  0  0  0  0  0  0
   21.0000  -10.3923    0.0000 C   0  0  0  0  0  0  0  0  0  0  0  0
   19.5000  -10.3923    0.0000 C   0  0  0  0  0  0  0  0  0  0  0  0
   18.7500   -9.0933    0.0000 C   0  0  0  0  0  0  0  0  0  0  0  0
   17.2500   -9.0933    0.0000 C   0  0  0  0  0  0  0  0  0  0  0  0
   16.5000   -7.7942    0.0000 C   0  0  0  0  0  0  0  0  0  0  0  0
   15.0000   -7.7942    0.0000 C   0  0  0  0  0  0  0  0  0  0  0  0
   14.2500   -6.4952    0.0000 C   0  0  0  0  0  0  0  0  0  0  0  0
   12.7500   -6.4952    0.0000 C   0  0  0  0  0  0  0  0  0  0  0  0
   12.0000   -5.1962    0.0000 C   0  0  0  0  0  0  0  0  0  0  0  0
   10.5000   -5.1962    0.0000 C   0  0  0  0  0  0  0  0  0  0  0  0
    9.7500   -3.8971    0.0000 C   0  0  0  0  0  0  0  0  0  0  0  0
    8.2500   -3.8971    0.0000 C   0  0  0  0  0  0  0  0  0  0  0  0
    7.5000   -2.5981    0.0000 C   0  0  0  0  0  0  0  0  0  0  0  0
    6.0000   -2.5981    0.0000 C   0  0  0  0  0  0  0  0  0  0  0  0
    5.2500   -1.2990    0.0000 C   0  0  0  0  0  0  0  0  0  0  0  0
    3.7500   -1.2990    0.0000 C   0  0  0  0  0  0  0  0  0  0  0  0
    3.0000    0.0000    0.0000 C   0  0  0  0  0  0  0  0  0  0  0  0
    1.5000    0.0000    0.0000 C   0  0  0  0  0  0  0  0  0  0  0  0
    0.7500   -1.2990    0.0000 C   0  0  0  0  0  0  0  0  0  0  0  0
   -0.7500   -1.2990    0.0000 C   0  0  0  0  0  0  0  0  0  0  0  0
   -1.5000    0.0000    0.0000 C   0  0  0  0  0  0  0  0  0  0  0  0
   -0.7500    1.2990    0.0000 C   0  0  0  0  0  0  0  0  0  0  0  0
    0.7500    1.2990    0.0000 C   0  0  0  0  0  0  0  0  0  0  0  0
  1  2  1  0
  2  3  2  3
  3  4  1  0
  4  5  1  0
  5  6  2  3
  6  7  1  0
  7  8  2  3
  8  9  1  0
  9 10  2  3
 10 11  1  0
 11 12  2  3
 12 13  1  0
 13 14  2  3
 14 15  1  0
 15 16  2  3
 16 17  1  0
 17 18  2  3
 18 19  1  0
 19 20  2  3
 20 21  1  0
 21 22  2  0
 22 23  1  0
 23 24  2  0
 24 25  1  0
 25 20  1  0
M  END
>  <Title>  (1118) 
idABQZgen8

$$$$

     RDKit          2D

 40 42  0  0  0  0  0  0  0  0999 V2000
    8.7821    1.2990    0.0000 C   0  0  0  0  0  0  0  0  0  0  0  0
    7.2821    1.2990    0.0000 C   0  0  0  0  0  0  0  0  0  0  0  0
    6.5321    2.5981    0.0000 O   0  0  0  0  0  0  0  0  0  0  0  0
    6.5321    0.0000    0.0000 O   0  0  0  0  0  0  0  0  0  0  0  0
    5.0321    0.0000    0.0000 C   0  0  0  0  0  0  0  0  0  0  0  0
    4.8086    1.4832    0.0000 C   0  0  0  0  0  0  0  0  0  0  0  0
    4.1577    2.8347    0.0000 C   0  0  0  0  0  0  0  0  0  0  0  0
    3.1375    3.9343    0.0000 C   0  0  0  0  0  0  0  0  0  0  0  0
    1.8384    4.6843    0.0000 C   0  0  0  0  0  0  0  0  0  0  0  0
    0.3761    5.0181    0.0000 C   0  0  0  0  0  0  0  0  0  0  0  0
   -1.1198    4.9060    0.0000 C   0  0  0  0  0  0  0  0  0  0  0  0
   -2.5161    4.3580    0.0000 C   0  0  0  0  0  0  0  0  0  0  0  0
   -3.6888    3.4227    0.0000 C   0  0  0  0  0  0  0  0  0  0  0  0
   -4.5338    2.1834    0.0000 C   0  0  0  0  0  0  0  0  0  0  0  0
   -4.9759    0.7500    0.0000 C   0  0  0  0  0  0  0  0  0  0  0  0
   -4.9759   -0.7500    0.0000 C   0  0  0  0  0  0  0  0  0  0  0  0
   -4.5338   -2.1834    0.0000 C   0  0  0  0  0  0  0  0  0  0  0  0
   -3.6888   -3.4227    0.0000 C   0  0  0  0  0  0  0  0  0  0  0  0
   -2.5161   -4.3580    0.0000 C   0  0  0  0  0  0  0  0  0  0  0  0
   -1.1198   -4.9060    0.0000 C   0  0  0  0  0  0  0  0  0  0  0  0
    0.3761   -5.0181    0.0000 C   0  0  0  0  0  0  0  0  0  0  0  0
    1.8384   -4.6843    0.0000 C   0  0  0  0  0  0  0  0  0  0  0  0
    3.1375   -3.9343    0.0000 C   0  0  0  0  0  0  0  0  0  0  0  0
    4.1577   -2.8347    0.0000 C   0  0  0  0  0  0  0  0  0  0  0  0
    4.8086   -1.4832    0.0000 N   0  0  0  0  0  0  0  0  0  0  0  0
    6.2710   -1.1495    0.0000 N   0  0  0  0  0  0  0  0  0  0  0  0
    7.4437   -2.0847    0.0000 N   0  0  0  0  0  0  0  0  0  0  0  0
    7.4437   -3.5847    0.0000 N   0  0  0  0  0  0  0  0  0  0  0  0
    6.2710   -4.5199    0.0000 N   0  0  0  0  0  0  0  0  0  0  0  0
    4.8086   -4.1862    0.0000 N   0  0  0  0  0  0  0  0  0  0  0  0
    3.8733   -5.3589    0.0000 C   0  0  0  0  0  0  0  0  0  0  0  0
    2.4320   -4.9436    0.0000 N   0  0  0  0  0  0  0  0  0  0  0  0
    1.1191   -5.6692    0.0000 N   0  0  0  0  0  0  0  0  0  0  0  0
    0.7039   -7.1106    0.0000 N   0  0  0  0  0  0  0  0  0  0  0  0
    1.4294   -8.4234    0.0000 N   0  0  0  0  0  0  0  0  0  0  0  0
    2.8708   -8.8387    0.0000 C   0  0  0  0  0  0  0  0  0  0  0  0
    3.0388  -10.3293    0.0000 C   0  0  0  0  0  0  0  0  0  0  0  0
    4.1837   -8.1131    0.0000 C   0  0  0  0  0  0  0  0  0  0  0  0
    5.3564   -9.0483    0.0000 O   0  0  0  0  0  0  0  0  0  0  0  0
    4.5989   -6.6717    0.0000 N   0  0  0  0  0  0  0  0  0  0  0  0
  1  2  1  0
  2  3  2  0
  2  4  1  0
  4  5  1  0
  5  6  2  0
  6  7  1  0
  7  8  2  0
  8  9  1  0
  9 10  2  0
 10 11  1  0
 11 12  2  0
 12 13  1  0
 13 14  2  0
 14 15  1  0
 15 16  2  0
 16 17  1  0
 17 18  2  0
 18 19  1  0
 19 20  2  0
 20 21  1  0
 21 22  2  0
 22 23  1  0
 23 24  2  0
 24 25  1  0
 25 26  1  0
 26 27  2  0
 27 28  1  0
 28 29  2  0
 29 30  1  0
 30 31  1  0
 31 32  2  0
 32 33  1  0
 33 34  2  0
 34 35  1  0
 35 36  2  0
 36 37  1  0
 36 38  1  0
 38 39  2  0
 38 40  1  0
 25  5  1  0
 40 31  1  0
 30 24  1  0
M  END
>  <Title>  (1119) 
idABRAgen8

$$$$

     RDKit          2D

 23 25  0  0  0  0  0  0  0  0999 V2000
    3.0000    0.0000    0.0000 C   0  0  0  0  0  0  0  0  0  0  0  0
    1.5000    0.0000    0.0000 C   0  0  0  0  0  0  0  0  0  0  0  0
    0.7500   -1.2990    0.0000 C   0  0  0  0  0  0  0  0  0  0  0  0
   -0.7500   -1.2990    0.0000 C   0  0  0  0  0  0  0  0  0  0  0  0
   -1.5000    0.0000    0.0000 C   0  0  0  0  0  0  0  0  0  0  0  0
   -3.0000    0.0000    0.0000 C   0  0  0  0  0  0  0  0  0  0  0  0
   -3.7500   -1.2990    0.0000 O   0  0  0  0  0  0  0  0  0  0  0  0
   -3.7500    1.2990    0.0000 N   0  0  0  0  0  0  0  0  0  0  0  0
   -5.2500    1.2990    0.0000 C   0  0  0  0  0  0  0  0  0  0  0  0
   -6.1317    0.0855    0.0000 N   0  0  0  0  0  0  0  0  0  0  0  0
   -7.5583    0.5490    0.0000 N   0  0  0  0  0  0  0  0  0  0  0  0
   -7.5583    2.0490    0.0000 N   0  0  0  0  0  0  0  0  0  0  0  0
   -6.1317    2.5126    0.0000 N   0  0  0  0  0  0  0  0  0  0  0  0
   -5.6682    3.9391    0.0000 C   0  0  0  0  0  0  0  0  0  0  0  0
   -6.5498    5.1527    0.0000 C   0  0  0  0  0  0  0  0  0  0  0  0
   -5.6682    6.3662    0.0000 C   0  0  0  0  0  0  0  0  0  0  0  0
   -6.1317    7.7928    0.0000 O   0  0  0  0  0  0  0  0  0  0  0  0
   -4.2416    5.9027    0.0000 N   0  0  0  0  0  0  0  0  0  0  0  0
   -4.2416    4.4027    0.0000 C   0  0  0  0  0  0  0  0  0  0  0  0
   -3.0280    3.5210    0.0000 O   0  0  0  0  0  0  0  0  0  0  0  0
   -0.7500    1.2990    0.0000 C   0  0  0  0  0  0  0  0  0  0  0  0
   -1.5000    2.5981    0.0000 O   0  0  0  0  0  0  0  0  0  0  0  0
    0.7500    1.2990    0.0000 N   0  0  0  0  0  0  0  0  0  0  0  0
  1  2  1  0
  2  3  2  0
  3  4  1  0
  4  5  2  0
  5  6  1  0
  6  7  2  0
  6  8  1  0
  8  9  1  0
  9 10  2  0
 10 11  1  0
 11 12  2  0
 12 13  1  0
 13 14  1  0
 14 15  1  0
 15 16  1  0
 16 17  2  0
 16 18  1  0
 18 19  1  0
 19 20  2  0
  5 21  1  0
 21 22  2  0
 21 23  1  0
 23  2  1  0
 13  9  1  0
 19 14  1  0
M  END
>  <Title>  (1120) 
idABRBgen8

$$$$

     RDKit          2D

 22 22  0  0  0  0  0  0  0  0999 V2000
    6.2943    0.0000    0.0000 C   0  0  0  0  0  0  0  0  0  0  0  0
    4.7943    0.0000    0.0000 C   0  0  0  0  0  0  0  0  0  0  0  0
    4.5597   -1.4815    0.0000 C   0  0  0  0  0  0  0  0  0  0  0  0
    3.8787   -2.8180    0.0000 C   0  0  0  0  0  0  0  0  0  0  0  0
    2.8180   -3.8787    0.0000 C   0  0  0  0  0  0  0  0  0  0  0  0
    1.4815   -4.5597    0.0000 C   0  0  0  0  0  0  0  0  0  0  0  0
   -0.0000   -4.7943    0.0000 C   0  0  0  0  0  0  0  0  0  0  0  0
   -0.0000   -6.2943    0.0000 F   0  0  0  0  0  0  0  0  0  0  0  0
   -1.4815   -4.5597    0.0000 C   0  0  0  0  0  0  0  0  0  0  0  0
   -2.8180   -3.8787    0.0000 C   0  0  0  0  0  0  0  0  0  0  0  0
   -3.8787   -2.8180    0.0000 C   0  0  0  0  0  0  0  0  0  0  0  0
   -4.5597   -1.4815    0.0000 C   0  0  0  0  0  0  0  0  0  0  0  0
   -4.7943    0.0000    0.0000 C   0  0  0  0  0  0  0  0  0  0  0  0
   -4.5597    1.4815    0.0000 C   0  0  0  0  0  0  0  0  0  0  0  0
   -3.8787    2.8180    0.0000 C   0  0  0  0  0  0  0  0  0  0  0  0
   -2.8180    3.8787    0.0000 C   0  0  0  0  0  0  0  0  0  0  0  0
   -1.4815    4.5597    0.0000 C   0  0  0  0  0  0  0  0  0  0  0  0
    0.0000    4.7943    0.0000 C   0  0  0  0  0  0  0  0  0  0  0  0
    1.4815    4.5597    0.0000 C   0  0  0  0  0  0  0  0  0  0  0  0
    2.8180    3.8787    0.0000 C   0  0  0  0  0  0  0  0  0  0  0  0
    3.8787    2.8180    0.0000 C   0  0  0  0  0  0  0  0  0  0  0  0
    4.5597    1.4815    0.0000 C   0  0  0  0  0  0  0  0  0  0  0  0
  1  2  1  0
  2  3  2  0
  3  4  1  0
  4  5  2  0
  5  6  1  0
  6  7  2  0
  7  8  1  0
  7  9  1  0
  9 10  2  0
 10 11  1  0
 11 12  2  0
 12 13  1  0
 13 14  2  0
 14 15  1  0
 15 16  2  0
 16 17  1  0
 17 18  2  0
 18 19  1  0
 19 20  2  0
 20 21  1  0
 21 22  2  0
 22  2  1  0
M  END
>  <Title>  (1121) 
idABRCgen8

$$$$

     RDKit          2D

  8  8  0  0  0  0  0  0  0  0999 V2000
    3.7500   -1.2990    0.0000 O   0  0  0  0  0  0  0  0  0  0  0  0
    3.0000    0.0000    0.0000 C   0  0  0  0  0  0  0  0  0  0  0  0
    1.5000    0.0000    0.0000 C   0  0  0  0  0  0  0  0  0  0  0  0
    0.7500   -1.2990    0.0000 C   0  0  0  0  0  0  0  0  0  0  0  0
   -0.7500   -1.2990    0.0000 C   0  0  0  0  0  0  0  0  0  0  0  0
   -1.5000    0.0000    0.0000 C   0  0  0  0  0  0  0  0  0  0  0  0
   -0.7500    1.2990    0.0000 C   0  0  0  0  0  0  0  0  0  0  0  0
    0.7500    1.2990    0.0000 C   0  0  0  0  0  0  0  0  0  0  0  0
  1  2  1  0
  2  3  1  0
  3  4  2  0
  4  5  1  0
  5  6  2  0
  6  7  1  0
  7  8  2  0
  8  3  1  0
M  END
>  <Title>  (1122) 
idABRDgen8

$$$$

     RDKit          2D

 14 14  0  0  0  0  0  0  0  0999 V2000
    4.3978    0.0000    0.0000 C   0  0  0  0  0  0  0  0  0  0  0  0
    2.8978    0.0000    0.0000 C   0  0  0  0  0  0  0  0  0  0  0  0
    2.5095   -1.4489    0.0000 C   0  0  0  0  0  0  0  0  0  0  0  0
    1.4489   -2.5095    0.0000 C   0  0  0  0  0  0  0  0  0  0  0  0
   -0.0000   -2.8978    0.0000 C   0  0  0  0  0  0  0  0  0  0  0  0
   -1.4489   -2.5095    0.0000 C   0  0  0  0  0  0  0  0  0  0  0  0
   -2.5095   -1.4489    0.0000 C   0  0  0  0  0  0  0  0  0  0  0  0
   -2.8978    0.0000    0.0000 C   0  0  0  0  0  0  0  0  0  0  0  0
   -2.5095    1.4489    0.0000 C   0  0  0  0  0  0  0  0  0  0  0  0
   -1.4489    2.5095    0.0000 C   0  0  0  0  0  0  0  0  0  0  0  0
    0.0000    2.8978    0.0000 C   0  0  0  0  0  0  0  0  0  0  0  0
    1.4489    2.5095    0.0000 C   0  0  0  0  0  0  0  0  0  0  0  0
    2.5095    1.4489    0.0000 C   0  0  0  0  0  0  0  0  0  0  0  0
    3.8086    2.1989    0.0000 C   0  0  0  0  0  0  0  0  0  0  0  0
  1  2  1  0
  2  3  2  0
  3  4  1  0
  4  5  2  0
  5  6  1  0
  6  7  2  0
  7  8  1  0
  8  9  2  0
  9 10  1  0
 10 11  2  0
 11 12  1  0
 12 13  2  0
 13 14  1  0
 13  2  1  0
M  END
>  <Title>  (1123) 
idABREgen8

$$$$

     RDKit          2D

 35 39  0  0  0  0  0  0  0  0999 V2000
    3.3999  -12.6483    0.0000 C   0  0  0  0  0  0  0  0  0  0  0  0
    3.1653  -11.1668    0.0000 C   0  0  0  0  0  0  0  0  0  0  0  0
    1.7649  -10.6293    0.0000 C   0  0  0  0  0  0  0  0  0  0  0  0
    1.5303   -9.1477    0.0000 C   0  0  0  0  0  0  0  0  0  0  0  0
    2.6960   -8.2037    0.0000 C   0  0  0  0  0  0  0  0  0  0  0  0
    2.4613   -6.7222    0.0000 C   0  0  0  0  0  0  0  0  0  0  0  0
    3.5220   -5.6615    0.0000 N   0  0  0  0  0  0  0  0  0  0  0  0
    2.8410   -4.3250    0.0000 N   0  0  0  0  0  0  0  0  0  0  0  0
    1.3595   -4.5597    0.0000 N   0  0  0  0  0  0  0  0  0  0  0  0
    1.1248   -6.0412    0.0000 N   0  0  0  0  0  0  0  0  0  0  0  0
   -0.2117   -6.7222    0.0000 C   0  0  0  0  0  0  0  0  0  0  0  0
   -0.4463   -8.2037    0.0000 C   0  0  0  0  0  0  0  0  0  0  0  0
   -1.9279   -8.4384    0.0000 N   0  0  0  0  0  0  0  0  0  0  0  0
   -2.6089   -7.1019    0.0000 N   0  0  0  0  0  0  0  0  0  0  0  0
   -1.5482   -6.0412    0.0000 N   0  0  0  0  0  0  0  0  0  0  0  0
   -1.7828   -4.5597    0.0000 C   0  0  0  0  0  0  0  0  0  0  0  0
   -0.4463   -3.8787    0.0000 C   0  0  0  0  0  0  0  0  0  0  0  0
    0.2347   -2.5422    0.0000 C   0  0  0  0  0  0  0  0  0  0  0  0
   -0.0000   -1.0607    0.0000 C   0  0  0  0  0  0  0  0  0  0  0  0
    1.0607    0.0000    0.0000 C   0  0  0  0  0  0  0  0  0  0  0  0
   -0.0000    1.0607    0.0000 C   0  0  0  0  0  0  0  0  0  0  0  0
   -0.0000    2.5607    0.0000 O   0  0  0  0  0  0  0  0  0  0  0  0
   -1.0607    0.0000    0.0000 C   0  0  0  0  0  0  0  0  0  0  0  0
   -2.5422    0.2347    0.0000 C   0  0  0  0  0  0  0  0  0  0  0  0
   -3.8787   -0.4463    0.0000 C   0  0  0  0  0  0  0  0  0  0  0  0
   -4.5597   -1.7828    0.0000 C   0  0  0  0  0  0  0  0  0  0  0  0
   -6.0412   -1.5482    0.0000 C   0  0  0  0  0  0  0  0  0  0  0  0
   -6.9852   -2.7139    0.0000 O   0  0  0  0  0  0  0  0  0  0  0  0
   -6.5788   -0.1478    0.0000 N   0  0  0  0  0  0  0  0  0  0  0  0
   -8.0603    0.0868    0.0000 O   0  0  0  0  0  0  0  0  0  0  0  0
   -4.3250   -3.2644    0.0000 C   0  0  0  0  0  0  0  0  0  0  0  0
   -3.2644   -4.3250    0.0000 C   0  0  0  0  0  0  0  0  0  0  0  0
    4.0964   -8.7413    0.0000 C   0  0  0  0  0  0  0  0  0  0  0  0
    5.2621   -7.7973    0.0000 O   0  0  0  0  0  0  0  0  0  0  0  0
    4.3310  -10.2228    0.0000 N   0  0  0  0  0  0  0  0  0  0  0  0
  1  2  1  0
  2  3  2  0
  3  4  1  0
  4  5  2  0
  5  6  1  0
  6  7  2  0
  7  8  1  0
  8  9  2  0
  9 10  1  0
 10 11  1  0
 11 12  2  0
 12 13  1  0
 13 14  2  0
 14 15  1  0
 15 16  1  0
 16 17  2  0
 17 18  1  0
 18 19  2  0
 19 20  1  0
 20 21  1  0
 21 22  2  0
 21 23  1  0
 23 24  2  0
 24 25  1  0
 25 26  2  0
 26 27  1  0
 27 28  2  0
 27 29  1  0
 29 30  1  0
 26 31  1  0
 31 32  1  0
  5 33  1  0
 33 34  2  0
 33 35  1  0
 35  2  1  0
 10  6  1  0
 15 11  1  0
 32 16  1  0
 23 19  1  0
M  END
>  <Title>  (1124) 
idABRFgen8

$$$$

     RDKit          2D

 37 39  0  0  0  0  0  0  0  0999 V2000
    3.7500   -1.2990    0.0000 C   0  0  0  0  0  0  0  0  0  0  0  0
    3.0000    0.0000    0.0000 O   0  0  0  0  0  0  0  0  0  0  0  0
    1.5000    0.0000    0.0000 C   0  0  0  0  0  0  0  0  0  0  0  0
    0.7500   -1.2990    0.0000 C   0  0  0  0  0  0  0  0  0  0  0  0
   -0.7500   -1.2990    0.0000 C   0  0  0  0  0  0  0  0  0  0  0  0
   -1.5000    0.0000    0.0000 C   0  0  0  0  0  0  0  0  0  0  0  0
   -0.7500    1.2990    0.0000 C   0  0  0  0  0  0  0  0  0  0  0  0
    0.7500    1.2990    0.0000 C   0  0  0  0  0  0  0  0  0  0  0  0
    1.5000    2.5981    0.0000 N   0  0  0  0  0  0  0  0  0  0  0  0
    3.0000    2.5981    0.0000 C   0  0  0  0  0  0  0  0  0  0  0  0
    3.7500    3.8971    0.0000 C   0  0  0  0  0  0  0  0  0  0  0  0
    5.2500    3.8971    0.0000 C   0  0  0  0  0  0  0  0  0  0  0  0
    6.0000    5.1962    0.0000 C   0  0  0  0  0  0  0  0  0  0  0  0
    7.5000    5.1962    0.0000 C   0  0  0  0  0  0  0  0  0  0  0  0
    8.2500    6.4952    0.0000 C   0  0  0  0  0  0  0  0  0  0  0  0
    9.7500    6.4952    0.0000 C   0  0  0  0  0  0  0  0  0  0  0  0
   10.5000    7.7942    0.0000 C   0  0  0  0  0  0  0  0  0  0  0  0
   12.0000    7.7942    0.0000 C   0  0  0  0  0  0  0  0  0  0  0  0
   12.7500    9.0933    0.0000 C   0  0  0  0  0  0  0  0  0  0  0  0
   14.2500    9.0933    0.0000 C   0  0  0  0  0  0  0  0  0  0  0  0
   15.0000   10.3923    0.0000 C   0  0  0  0  0  0  0  0  0  0  0  0
   16.5000   10.3923    0.0000 C   0  0  0  0  0  0  0  0  0  0  0  0
   17.2500   11.6913    0.0000 C   0  0  0  0  0  0  0  0  0  0  0  0
   18.7500   11.6913    0.0000 C   0  0  0  0  0  0  0  0  0  0  0  0
   19.5000   12.9904    0.0000 C   0  0  0  0  0  0  0  0  0  0  0  0
   18.8899   14.3607    0.0000 C   0  0  0  0  0  0  0  0  0  0  0  0
   20.0046   15.3644    0.0000 C   0  0  0  0  0  0  0  0  0  0  0  0
   21.3037   14.6144    0.0000 C   0  0  0  0  0  0  0  0  0  0  0  0
   20.9918   13.1472    0.0000 C   0  0  0  0  0  0  0  0  0  0  0  0
   21.9955   12.0325    0.0000 C   0  0  0  0  0  0  0  0  0  0  0  0
   21.9170   10.5345    0.0000 C   0  0  0  0  0  0  0  0  0  0  0  0
   23.4149   10.4560    0.0000 C   0  0  0  0  0  0  0  0  0  0  0  0
   23.4934   11.9540    0.0000 C   0  0  0  0  0  0  0  0  0  0  0  0
   24.6081   12.9576    0.0000 O   0  0  0  0  0  0  0  0  0  0  0  0
   26.0347   12.4941    0.0000 C   0  0  0  0  0  0  0  0  0  0  0  0
   27.1494   13.4978    0.0000 C   0  0  0  0  0  0  0  0  0  0  0  0
   26.3466   11.0269    0.0000 C   0  0  0  0  0  0  0  0  0  0  0  0
  1  2  1  0
  2  3  1  0
  3  4  2  0
  4  5  1  0
  5  6  2  0
  6  7  1  0
  7  8  2  0
  8  9  1  0
  9 10  1  0
 10 11  2  3
 11 12  1  0
 12 13  2  3
 13 14  1  0
 14 15  2  3
 15 16  1  0
 16 17  2  3
 17 18  1  0
 18 19  2  3
 19 20  1  0
 20 21  2  3
 21 22  1  0
 22 23  2  3
 23 24  1  0
 24 25  2  3
 25 26  1  0
 26 27  2  0
 27 28  1  0
 28 29  2  0
 29 30  1  0
 30 31  2  0
 31 32  1  0
 32 33  2  0
 33 34  1  0
 34 35  1  0
 35 36  1  0
 35 37  1  0
  8  3  1  0
 29 25  1  0
 33 30  1  0
M  END
>  <Title>  (1125) 
idABRGgen8

$$$$

     RDKit          2D

 32 35  0  0  0  0  0  0  0  0999 V2000
    5.2500   -1.2990    0.0000 C   0  0  0  0  0  0  0  0  0  0  0  0
    3.7500   -1.2990    0.0000 O   0  0  0  0  0  0  0  0  0  0  0  0
    3.0000    0.0000    0.0000 C   0  0  0  0  0  0  0  0  0  0  0  0
    3.7500    1.2990    0.0000 O   0  0  0  0  0  0  0  0  0  0  0  0
    1.5000    0.0000    0.0000 C   0  0  0  0  0  0  0  0  0  0  0  0
    0.7500   -1.2990    0.0000 C   0  0  0  0  0  0  0  0  0  0  0  0
   -0.7500   -1.2990    0.0000 C   0  0  0  0  0  0  0  0  0  0  0  0
   -1.5000    0.0000    0.0000 C   0  0  0  0  0  0  0  0  0  0  0  0
   -3.0000    0.0000    0.0000 C   0  0  0  0  0  0  0  0  0  0  0  0
   -3.7500   -1.2990    0.0000 O   0  0  0  0  0  0  0  0  0  0  0  0
   -3.7500    1.2990    0.0000 N   0  0  0  0  0  0  0  0  0  0  0  0
   -5.2500    1.2990    0.0000 C   0  0  0  0  0  0  0  0  0  0  0  0
   -6.1317    0.0855    0.0000 N   0  0  0  0  0  0  0  0  0  0  0  0
   -7.5583    0.5490    0.0000 N   0  0  0  0  0  0  0  0  0  0  0  0
   -7.5583    2.0490    0.0000 N   0  0  0  0  0  0  0  0  0  0  0  0
   -6.1317    2.5126    0.0000 N   0  0  0  0  0  0  0  0  0  0  0  0
   -5.6682    3.9391    0.0000 C   0  0  0  0  0  0  0  0  0  0  0  0
   -4.2009    4.2510    0.0000 C   0  0  0  0  0  0  0  0  0  0  0  0
   -3.7374    5.6776    0.0000 C   0  0  0  0  0  0  0  0  0  0  0  0
   -4.7411    6.7923    0.0000 C   0  0  0  0  0  0  0  0  0  0  0  0
   -6.2083    6.4805    0.0000 C   0  0  0  0  0  0  0  0  0  0  0  0
   -6.6718    5.0539    0.0000 C   0  0  0  0  0  0  0  0  0  0  0  0
   -8.1391    4.7420    0.0000 C   0  0  0  0  0  0  0  0  0  0  0  0
   -9.1428    5.8567    0.0000 C   0  0  0  0  0  0  0  0  0  0  0  0
  -10.6100    5.5448    0.0000 C   0  0  0  0  0  0  0  0  0  0  0  0
  -11.0735    4.1183    0.0000 C   0  0  0  0  0  0  0  0  0  0  0  0
  -12.5407    3.8064    0.0000 F   0  0  0  0  0  0  0  0  0  0  0  0
  -10.0698    3.0035    0.0000 C   0  0  0  0  0  0  0  0  0  0  0  0
  -10.5333    1.5770    0.0000 O   0  0  0  0  0  0  0  0  0  0  0  0
   -8.6026    3.3154    0.0000 N   0  0  0  0  0  0  0  0  0  0  0  0
   -0.7500    1.2990    0.0000 C   0  0  0  0  0  0  0  0  0  0  0  0
    0.7500    1.2990    0.0000 C   0  0  0  0  0  0  0  0  0  0  0  0
  1  2  1  0
  2  3  1  0
  3  4  2  0
  3  5  1  0
  5  6  2  0
  6  7  1  0
  7  8  2  0
  8  9  1  0
  9 10  2  0
  9 11  1  0
 11 12  1  0
 12 13  2  0
 13 14  1  0
 14 15  2  0
 15 16  1  0
 16 17  1  0
 17 18  1  0
 18 19  1  0
 19 20  1  0
 20 21  1  0
 21 22  1  0
 22 23  1  0
 23 24  2  0
 24 25  1  0
 25 26  2  0
 26 27  1  0
 26 28  1  0
 28 29  2  0
 28 30  1  0
  8 31  1  0
 31 32  2  0
 32  5  1  0
 16 12  1  0
 22 17  1  0
 30 23  1  0
M  END
>  <Title>  (1126) 
idABRHgen8

$$$$

     RDKit          2D

 25 27  0  0  0  0  0  0  0  0999 V2000
    3.7500   -1.2990    0.0000 C   0  0  0  0  0  0  0  0  0  0  0  0
    3.0000    0.0000    0.0000 O   0  0  0  0  0  0  0  0  0  0  0  0
    1.5000    0.0000    0.0000 C   0  0  0  0  0  0  0  0  0  0  0  0
    0.7500   -1.2990    0.0000 C   0  0  0  0  0  0  0  0  0  0  0  0
   -0.7500   -1.2990    0.0000 C   0  0  0  0  0  0  0  0  0  0  0  0
   -1.5000    0.0000    0.0000 C   0  0  0  0  0  0  0  0  0  0  0  0
   -3.0000    0.0000    0.0000 N   0  0  0  0  0  0  0  0  0  0  0  0
   -3.7500    1.2990    0.0000 N   0  0  0  0  0  0  0  0  0  0  0  0
   -5.2500    1.2990    0.0000 N   0  0  0  0  0  0  0  0  0  0  0  0
   -6.0000    0.0000    0.0000 N   0  0  0  0  0  0  0  0  0  0  0  0
   -5.2500   -1.2990    0.0000 N   0  0  0  0  0  0  0  0  0  0  0  0
   -3.7500   -1.2990    0.0000 N   0  0  0  0  0  0  0  0  0  0  0  0
   -3.0000   -2.5981    0.0000 C   0  0  0  0  0  0  0  0  0  0  0  0
   -3.7500   -3.8971    0.0000 C   0  0  0  0  0  0  0  0  0  0  0  0
   -3.0000   -5.1962    0.0000 C   0  0  0  0  0  0  0  0  0  0  0  0
   -1.5000   -5.1962    0.0000 C   0  0  0  0  0  0  0  0  0  0  0  0
   -0.7500   -6.4952    0.0000 C   0  0  0  0  0  0  0  0  0  0  0  0
    0.7500   -6.4952    0.0000 O   0  0  0  0  0  0  0  0  0  0  0  0
   -1.5000   -7.7942    0.0000 N   0  0  0  0  0  0  0  0  0  0  0  0
   -0.7500   -9.0933    0.0000 O   0  0  0  0  0  0  0  0  0  0  0  0
   -0.7500   -3.8971    0.0000 C   0  0  0  0  0  0  0  0  0  0  0  0
   -1.5000   -2.5981    0.0000 C   0  0  0  0  0  0  0  0  0  0  0  0
   -0.7500    1.2990    0.0000 C   0  0  0  0  0  0  0  0  0  0  0  0
   -1.5000    2.5981    0.0000 O   0  0  0  0  0  0  0  0  0  0  0  0
    0.7500    1.2990    0.0000 N   0  0  0  0  0  0  0  0  0  0  0  0
  1  2  1  0
  2  3  1  0
  3  4  2  0
  4  5  1  0
  5  6  2  0
  6  7  1  0
  7  8  1  0
  8  9  2  0
  9 10  1  0
 10 11  2  0
 11 12  1  0
 12 13  1  0
 13 14  2  0
 14 15  1  0
 15 16  2  0
 16 17  1  0
 17 18  2  0
 17 19  1  0
 19 20  1  0
 16 21  1  0
 21 22  1  0
  6 23  1  0
 23 24  2  0
 23 25  1  0
 25  3  1  0
 12  7  1  0
 22 13  1  0
M  END
>  <Title>  (1127) 
idABRIgen8

$$$$

     RDKit          2D

 19 19  0  0  0  0  0  0  0  0999 V2000
    5.3444    0.0000    0.0000 C   0  0  0  0  0  0  0  0  0  0  0  0
    3.8444    0.0000    0.0000 C   0  0  0  0  0  0  0  0  0  0  0  0
    3.5517   -1.4712    0.0000 C   0  0  0  0  0  0  0  0  0  0  0  0
    2.7184   -2.7184    0.0000 C   0  0  0  0  0  0  0  0  0  0  0  0
    1.4712   -3.5517    0.0000 C   0  0  0  0  0  0  0  0  0  0  0  0
   -0.0000   -3.8444    0.0000 C   0  0  0  0  0  0  0  0  0  0  0  0
   -1.4712   -3.5517    0.0000 C   0  0  0  0  0  0  0  0  0  0  0  0
   -2.7184   -2.7184    0.0000 C   0  0  0  0  0  0  0  0  0  0  0  0
   -3.5517   -1.4712    0.0000 C   0  0  0  0  0  0  0  0  0  0  0  0
   -3.8444    0.0000    0.0000 C   0  0  0  0  0  0  0  0  0  0  0  0
   -3.5517    1.4712    0.0000 C   0  0  0  0  0  0  0  0  0  0  0  0
   -2.7184    2.7184    0.0000 C   0  0  0  0  0  0  0  0  0  0  0  0
   -1.4712    3.5517    0.0000 C   0  0  0  0  0  0  0  0  0  0  0  0
    0.0000    3.8444    0.0000 C   0  0  0  0  0  0  0  0  0  0  0  0
    1.4712    3.5517    0.0000 C   0  0  0  0  0  0  0  0  0  0  0  0
    2.0452    4.9376    0.0000 C   0  0  0  0  0  0  0  0  0  0  0  0
    2.7184    2.7184    0.0000 C   0  0  0  0  0  0  0  0  0  0  0  0
    3.7790    3.7790    0.0000 O   0  0  0  0  0  0  0  0  0  0  0  0
    3.5517    1.4712    0.0000 N   0  0  0  0  0  0  0  0  0  0  0  0
  1  2  1  0
  2  3  2  0
  3  4  1  0
  4  5  2  0
  5  6  1  0
  6  7  2  0
  7  8  1  0
  8  9  2  0
  9 10  1  0
 10 11  2  0
 11 12  1  0
 12 13  2  0
 13 14  1  0
 14 15  2  0
 15 16  1  0
 15 17  1  0
 17 18  2  0
 17 19  1  0
 19  2  1  0
M  END
>  <Title>  (1128) 
idABRJgen8

$$$$

     RDKit          2D

 27 27  0  0  0  0  0  0  0  0999 V2000
    7.4840    0.0000    0.0000 C   0  0  0  0  0  0  0  0  0  0  0  0
    5.9840    0.0000    0.0000 C   0  0  0  0  0  0  0  0  0  0  0  0
    5.7960    1.4882    0.0000 C   0  0  0  0  0  0  0  0  0  0  0  0
    5.2439    2.8828    0.0000 C   0  0  0  0  0  0  0  0  0  0  0  0
    4.3622    4.0964    0.0000 C   0  0  0  0  0  0  0  0  0  0  0  0
    3.2064    5.0525    0.0000 C   0  0  0  0  0  0  0  0  0  0  0  0
    4.0102    6.3190    0.0000 F   0  0  0  0  0  0  0  0  0  0  0  0
    1.8492    5.6912    0.0000 C   0  0  0  0  0  0  0  0  0  0  0  0
    0.3757    5.9722    0.0000 C   0  0  0  0  0  0  0  0  0  0  0  0
   -1.1213    5.8781    0.0000 C   0  0  0  0  0  0  0  0  0  0  0  0
   -2.5479    5.4145    0.0000 C   0  0  0  0  0  0  0  0  0  0  0  0
   -3.8144    4.6108    0.0000 C   0  0  0  0  0  0  0  0  0  0  0  0
   -4.8412    3.5173    0.0000 C   0  0  0  0  0  0  0  0  0  0  0  0
   -5.5638    2.2029    0.0000 C   0  0  0  0  0  0  0  0  0  0  0  0
   -5.9369    0.7500    0.0000 C   0  0  0  0  0  0  0  0  0  0  0  0
   -5.9369   -0.7500    0.0000 C   0  0  0  0  0  0  0  0  0  0  0  0
   -5.5638   -2.2029    0.0000 C   0  0  0  0  0  0  0  0  0  0  0  0
   -4.8412   -3.5173    0.0000 C   0  0  0  0  0  0  0  0  0  0  0  0
   -3.8144   -4.6108    0.0000 C   0  0  0  0  0  0  0  0  0  0  0  0
   -2.5479   -5.4145    0.0000 C   0  0  0  0  0  0  0  0  0  0  0  0
   -1.1213   -5.8781    0.0000 C   0  0  0  0  0  0  0  0  0  0  0  0
    0.3757   -5.9722    0.0000 C   0  0  0  0  0  0  0  0  0  0  0  0
    1.8492   -5.6912    0.0000 C   0  0  0  0  0  0  0  0  0  0  0  0
    3.2064   -5.0525    0.0000 C   0  0  0  0  0  0  0  0  0  0  0  0
    4.3622   -4.0964    0.0000 C   0  0  0  0  0  0  0  0  0  0  0  0
    5.2439   -2.8828    0.0000 C   0  0  0  0  0  0  0  0  0  0  0  0
    5.7960   -1.4882    0.0000 C   0  0  0  0  0  0  0  0  0  0  0  0
  1  2  1  0
  2  3  2  0
  3  4  1  0
  4  5  2  0
  5  6  2  0
  6  7  1  0
  6  8  1  0
  8  9  2  0
  9 10  1  0
 10 11  2  0
 11 12  1  0
 12 13  2  0
 13 14  1  0
 14 15  2  0
 15 16  1  0
 16 17  2  0
 17 18  1  0
 18 19  2  0
 19 20  1  0
 20 21  2  0
 21 22  1  0
 22 23  2  0
 23 24  1  0
 24 25  2  0
 25 26  1  0
 26 27  2  0
 27  2  1  0
M  END
>  <Title>  (1129) 
idABRKgen8

$$$$

     RDKit          2D

 25 27  0  0  0  0  0  0  0  0999 V2000
    5.2500   -1.2990    0.0000 C   0  0  0  0  0  0  0  0  0  0  0  0
    3.7500   -1.2990    0.0000 C   0  0  0  0  0  0  0  0  0  0  0  0
    3.0000   -2.5981    0.0000 O   0  0  0  0  0  0  0  0  0  0  0  0
    3.0000    0.0000    0.0000 O   0  0  0  0  0  0  0  0  0  0  0  0
    1.5000    0.0000    0.0000 C   0  0  0  0  0  0  0  0  0  0  0  0
    0.7500   -1.2990    0.0000 C   0  0  0  0  0  0  0  0  0  0  0  0
   -0.7500   -1.2990    0.0000 C   0  0  0  0  0  0  0  0  0  0  0  0
   -1.5000    0.0000    0.0000 C   0  0  0  0  0  0  0  0  0  0  0  0
   -3.0000    0.0000    0.0000 N   0  0  0  0  0  0  0  0  0  0  0  0
   -3.7500    1.2990    0.0000 C   0  0  0  0  0  0  0  0  0  0  0  0
   -3.0000    2.5981    0.0000 O   0  0  0  0  0  0  0  0  0  0  0  0
   -5.2500    1.2990    0.0000 C   0  0  0  0  0  0  0  0  0  0  0  0
   -6.1317    0.0855    0.0000 N   0  0  0  0  0  0  0  0  0  0  0  0
   -7.5583    0.5490    0.0000 N   0  0  0  0  0  0  0  0  0  0  0  0
   -7.5583    2.0490    0.0000 N   0  0  0  0  0  0  0  0  0  0  0  0
   -6.1317    2.5126    0.0000 N   0  0  0  0  0  0  0  0  0  0  0  0
   -5.6682    3.9391    0.0000 C   0  0  0  0  0  0  0  0  0  0  0  0
   -4.2009    4.2510    0.0000 C   0  0  0  0  0  0  0  0  0  0  0  0
   -3.7374    5.6776    0.0000 C   0  0  0  0  0  0  0  0  0  0  0  0
   -4.7411    6.7923    0.0000 C   0  0  0  0  0  0  0  0  0  0  0  0
   -4.2776    8.2189    0.0000 C   0  0  0  0  0  0  0  0  0  0  0  0
   -6.2083    6.4805    0.0000 C   0  0  0  0  0  0  0  0  0  0  0  0
   -6.6718    5.0539    0.0000 C   0  0  0  0  0  0  0  0  0  0  0  0
   -0.7500    1.2990    0.0000 C   0  0  0  0  0  0  0  0  0  0  0  0
    0.7500    1.2990    0.0000 C   0  0  0  0  0  0  0  0  0  0  0  0
  1  2  1  0
  2  3  2  0
  2  4  1  0
  4  5  1  0
  5  6  2  0
  6  7  1  0
  7  8  2  0
  8  9  1  0
  9 10  1  0
 10 11  2  0
 10 12  1  0
 12 13  2  0
 13 14  1  0
 14 15  2  0
 15 16  1  0
 16 17  1  0
 17 18  2  0
 18 19  1  0
 19 20  2  0
 20 21  1  0
 20 22  1  0
 22 23  1  0
  8 24  1  0
 24 25  2  0
 25  5  1  0
 16 12  1  0
 23 17  1  0
M  END
>  <Title>  (1130) 
idABRLgen8

$$$$

     RDKit          2D

 41 46  0  0  0  0  0  0  0  0999 V2000
   -6.9232   -2.9314    0.0000 C   0  0  0  0  0  0  0  0  0  0  0  0
   -6.8559   -1.4329    0.0000 C   0  0  0  0  0  0  0  0  0  0  0  0
   -8.1200   -0.6253    0.0000 C   0  0  0  0  0  0  0  0  0  0  0  0
   -8.0527    0.8731    0.0000 C   0  0  0  0  0  0  0  0  0  0  0  0
   -6.7213    1.5641    0.0000 C   0  0  0  0  0  0  0  0  0  0  0  0
   -6.6540    3.0626    0.0000 C   0  0  0  0  0  0  0  0  0  0  0  0
   -7.9181    3.8701    0.0000 O   0  0  0  0  0  0  0  0  0  0  0  0
   -5.3226    3.7536    0.0000 N   0  0  0  0  0  0  0  0  0  0  0  0
   -5.2553    5.2520    0.0000 C   0  0  0  0  0  0  0  0  0  0  0  0
   -6.4281    6.1873    0.0000 N   0  0  0  0  0  0  0  0  0  0  0  0
   -5.9010    7.5916    0.0000 N   0  0  0  0  0  0  0  0  0  0  0  0
   -4.4025    7.5243    0.0000 N   0  0  0  0  0  0  0  0  0  0  0  0
   -4.0035    6.0784    0.0000 N   0  0  0  0  0  0  0  0  0  0  0  0
   -2.5991    5.5513    0.0000 C   0  0  0  0  0  0  0  0  0  0  0  0
   -2.3534    4.0716    0.0000 C   0  0  0  0  0  0  0  0  0  0  0  0
   -0.9491    3.5445    0.0000 C   0  0  0  0  0  0  0  0  0  0  0  0
    0.2096    4.4972    0.0000 C   0  0  0  0  0  0  0  0  0  0  0  0
    1.6139    3.9701    0.0000 C   0  0  0  0  0  0  0  0  0  0  0  0
    2.8658    4.7965    0.0000 N   0  0  0  0  0  0  0  0  0  0  0  0
    4.0385    3.8613    0.0000 N   0  0  0  0  0  0  0  0  0  0  0  0
    3.5115    2.4569    0.0000 N   0  0  0  0  0  0  0  0  0  0  0  0
    2.0130    2.5242    0.0000 N   0  0  0  0  0  0  0  0  0  0  0  0
    1.0777    1.3515    0.0000 C   0  0  0  0  0  0  0  0  0  0  0  0
   -0.3846    1.6852    0.0000 C   0  0  0  0  0  0  0  0  0  0  0  0
   -1.5574    0.7500    0.0000 C   0  0  0  0  0  0  0  0  0  0  0  0
   -1.5574   -0.7500    0.0000 N   0  0  0  0  0  0  0  0  0  0  0  0
   -0.3846   -1.6852    0.0000 N   0  0  0  0  0  0  0  0  0  0  0  0
    1.0777   -1.3515    0.0000 N   0  0  0  0  0  0  0  0  0  0  0  0
    1.7286    0.0000    0.0000 N   0  0  0  0  0  0  0  0  0  0  0  0
    3.2286    0.0000    0.0000 C   0  0  0  0  0  0  0  0  0  0  0  0
    3.9786    1.2990    0.0000 C   0  0  0  0  0  0  0  0  0  0  0  0
    5.4786    1.2990    0.0000 C   0  0  0  0  0  0  0  0  0  0  0  0
    6.2286    0.0000    0.0000 C   0  0  0  0  0  0  0  0  0  0  0  0
    5.4786   -1.2990    0.0000 C   0  0  0  0  0  0  0  0  0  0  0  0
    3.9786   -1.2990    0.0000 C   0  0  0  0  0  0  0  0  0  0  0  0
   -0.0362    5.9769    0.0000 C   0  0  0  0  0  0  0  0  0  0  0  0
    1.1225    6.9296    0.0000 O   0  0  0  0  0  0  0  0  0  0  0  0
   -1.4405    6.5040    0.0000 N   0  0  0  0  0  0  0  0  0  0  0  0
   -5.4572    0.7566    0.0000 C   0  0  0  0  0  0  0  0  0  0  0  0
   -4.1259    1.4475    0.0000 O   0  0  0  0  0  0  0  0  0  0  0  0
   -5.5245   -0.7419    0.0000 N   0  0  0  0  0  0  0  0  0  0  0  0
  1  2  1  0
  2  3  2  0
  3  4  1  0
  4  5  2  0
  5  6  1  0
  6  7  2  0
  6  8  1  0
  8  9  1  0
  9 10  2  0
 10 11  1  0
 11 12  2  0
 12 13  1  0
 13 14  1  0
 14 15  2  0
 15 16  1  0
 16 17  2  0
 17 18  1  0
 18 19  2  0
 19 20  1  0
 20 21  2  0
 21 22  1  0
 22 23  1  0
 23 24  2  0
 24 25  1  0
 25 26  2  0
 26 27  1  0
 27 28  2  0
 28 29  1  0
 29 30  1  0
 30 31  2  0
 31 32  1  0
 32 33  2  0
 33 34  1  0
 34 35  2  0
 17 36  1  0
 36 37  2  0
 36 38  1  0
  5 39  1  0
 39 40  2  0
 39 41  1  0
 41  2  1  0
 13  9  1  0
 38 14  1  0
 22 18  1  0
 29 23  1  0
 35 30  1  0
M  END
>  <Title>  (1131) 
idABRMgen8

$$$$

     RDKit          2D

 41 47  0  0  0  0  0  0  0  0999 V2000
   -6.1065    9.9399    0.0000 C   0  0  0  0  0  0  0  0  0  0  0  0
   -4.8446    9.1290    0.0000 C   0  0  0  0  0  0  0  0  0  0  0  0
   -4.7590    7.6314    0.0000 C   0  0  0  0  0  0  0  0  0  0  0  0
   -3.3083    7.2501    0.0000 C   0  0  0  0  0  0  0  0  0  0  0  0
   -2.4973    8.5120    0.0000 C   0  0  0  0  0  0  0  0  0  0  0  0
   -0.9997    8.5976    0.0000 C   0  0  0  0  0  0  0  0  0  0  0  0
   -0.1888    9.8595    0.0000 N   0  0  0  0  0  0  0  0  0  0  0  0
    1.2619    9.4781    0.0000 N   0  0  0  0  0  0  0  0  0  0  0  0
    1.3476    7.9806    0.0000 N   0  0  0  0  0  0  0  0  0  0  0  0
   -0.0502    7.4364    0.0000 N   0  0  0  0  0  0  0  0  0  0  0  0
   -0.4316    5.9857    0.0000 C   0  0  0  0  0  0  0  0  0  0  0  0
    0.8530    5.2111    0.0000 C   0  0  0  0  0  0  0  0  0  0  0  0
    1.5148    3.8650    0.0000 C   0  0  0  0  0  0  0  0  0  0  0  0
    1.3438    2.3747    0.0000 C   0  0  0  0  0  0  0  0  0  0  0  0
    2.7255    1.7908    0.0000 C   0  0  0  0  0  0  0  0  0  0  0  0
    2.9107    0.3023    0.0000 C   0  0  0  0  0  0  0  0  0  0  0  0
    4.2924   -0.2816    0.0000 C   0  0  0  0  0  0  0  0  0  0  0  0
    5.4889    0.6230    0.0000 C   0  0  0  0  0  0  0  0  0  0  0  0
    6.8706    0.0391    0.0000 C   0  0  0  0  0  0  0  0  0  0  0  0
    5.3037    2.1115    0.0000 C   0  0  0  0  0  0  0  0  0  0  0  0
    6.5002    3.0162    0.0000 O   0  0  0  0  0  0  0  0  0  0  0  0
    3.9220    2.6955    0.0000 N   0  0  0  0  0  0  0  0  0  0  0  0
    0.3943    1.2135    0.0000 C   0  0  0  0  0  0  0  0  0  0  0  0
    1.2760    0.0000    0.0000 N   0  0  0  0  0  0  0  0  0  0  0  0
    0.3943   -1.2135    0.0000 N   0  0  0  0  0  0  0  0  0  0  0  0
   -1.0323   -0.7500    0.0000 N   0  0  0  0  0  0  0  0  0  0  0  0
   -1.0323    0.7500    0.0000 N   0  0  0  0  0  0  0  0  0  0  0  0
   -2.4830    1.1313    0.0000 C   0  0  0  0  0  0  0  0  0  0  0  0
   -2.8691    2.5453    0.0000 C   0  0  0  0  0  0  0  0  0  0  0  0
   -3.0576    3.6347    0.0000 C   0  0  0  0  0  0  0  0  0  0  0  0
   -3.1691    5.0962    0.0000 C   0  0  0  0  0  0  0  0  0  0  0  0
   -1.9309    5.9428    0.0000 C   0  0  0  0  0  0  0  0  0  0  0  0
   -2.3945    7.3694    0.0000 O   0  0  0  0  0  0  0  0  0  0  0  0
   -4.5532    4.5179    0.0000 C   0  0  0  0  0  0  0  0  0  0  0  0
   -6.0134    4.1588    0.0000 N   0  0  0  0  0  0  0  0  0  0  0  0
   -6.5309    2.7509    0.0000 N   0  0  0  0  0  0  0  0  0  0  0  0
   -5.5703    1.5988    0.0000 N   0  0  0  0  0  0  0  0  0  0  0  0
   -4.0923    1.8546    0.0000 N   0  0  0  0  0  0  0  0  0  0  0  0
   -4.9640    3.0753    0.0000 C   0  0  0  0  0  0  0  0  0  0  0  0
   -5.6933    2.7533    0.0000 O   0  0  0  0  0  0  0  0  0  0  0  0
   -3.4468    9.6732    0.0000 N   0  0  0  0  0  0  0  0  0  0  0  0
  1  2  1  0
  2  3  2  0
  3  4  1  0
  4  5  2  0
  5  6  1  0
  6  7  2  0
  7  8  1  0
  8  9  2  0
  9 10  1  0
 10 11  1  0
 11 12  2  0
 12 13  1  0
 13 14  2  0
 14 15  1  0
 15 16  2  0
 16 17  1  0
 17 18  2  0
 18 19  1  0
 18 20  1  0
 20 21  2  0
 20 22  1  0
 14 23  1  0
 23 24  2  0
 24 25  1  0
 25 26  2  0
 26 27  1  0
 27 28  1  0
 28 29  2  0
 29 30  1  0
 30 31  2  0
 31 32  1  0
 32 33  2  0
 31 34  1  0
 34 35  2  0
 35 36  1  0
 36 37  2  0
 37 38  1  0
 38 39  1  0
 39 40  2  0
  5 41  1  0
 41  2  1  0
 10  6  1  0
 32 11  1  0
 39 34  1  0
 22 15  1  0
 27 23  1  0
 38 28  1  0
M  END
>  <Title>  (1132) 
idABRNgen8

$$$$

     RDKit          2D

 12 12  0  0  0  0  0  0  0  0999 V2000
    4.2098   -1.2990    0.0000 C   0  0  0  0  0  0  0  0  0  0  0  0
    3.4598   -0.0000    0.0000 O   0  0  0  0  0  0  0  0  0  0  0  0
    1.9598    0.0000    0.0000 C   0  0  0  0  0  0  0  0  0  0  0  0
    1.3858   -1.3858    0.0000 C   0  0  0  0  0  0  0  0  0  0  0  0
   -0.0000   -1.9598    0.0000 C   0  0  0  0  0  0  0  0  0  0  0  0
   -1.3858   -1.3858    0.0000 C   0  0  0  0  0  0  0  0  0  0  0  0
   -1.9598    0.0000    0.0000 C   0  0  0  0  0  0  0  0  0  0  0  0
   -1.3858    1.3858    0.0000 C   0  0  0  0  0  0  0  0  0  0  0  0
   -2.4465    2.4465    0.0000 F   0  0  0  0  0  0  0  0  0  0  0  0
    0.0000    1.9598    0.0000 C   0  0  0  0  0  0  0  0  0  0  0  0
    1.3858    1.3858    0.0000 C   0  0  0  0  0  0  0  0  0  0  0  0
    2.4465    2.4465    0.0000 C   0  0  0  0  0  0  0  0  0  0  0  0
  1  2  1  0
  2  3  1  0
  3  4  2  0
  4  5  1  0
  5  6  2  0
  6  7  1  0
  7  8  2  0
  8  9  1  0
  8 10  1  0
 10 11  2  0
 11 12  1  0
 11  3  1  0
M  END
>  <Title>  (1133) 
idABROgen8

$$$$

     RDKit          2D

 16 16  0  0  0  0  0  0  0  0999 V2000
    4.3978    0.0000    0.0000 C   0  0  0  0  0  0  0  0  0  0  0  0
    2.8978    0.0000    0.0000 C   0  0  0  0  0  0  0  0  0  0  0  0
    2.5095   -1.4489    0.0000 C   0  0  0  0  0  0  0  0  0  0  0  0
    1.4489   -2.5095    0.0000 C   0  0  0  0  0  0  0  0  0  0  0  0
   -0.0000   -2.8978    0.0000 C   0  0  0  0  0  0  0  0  0  0  0  0
   -1.4489   -2.5095    0.0000 C   0  0  0  0  0  0  0  0  0  0  0  0
   -2.5095   -1.4489    0.0000 C   0  0  0  0  0  0  0  0  0  0  0  0
   -3.8086   -2.1989    0.0000 F   0  0  0  0  0  0  0  0  0  0  0  0
   -2.8978    0.0000    0.0000 C   0  0  0  0  0  0  0  0  0  0  0  0
   -4.3978    0.0000    0.0000 N   0  0  0  0  0  0  0  0  0  0  0  0
   -2.5095    1.4489    0.0000 N   0  0  0  0  0  0  0  0  0  0  0  0
   -1.4489    2.5095    0.0000 O   0  0  0  0  0  0  0  0  0  0  0  0
    0.0000    2.8978    0.0000 C   0  0  0  0  0  0  0  0  0  0  0  0
    1.4489    2.5095    0.0000 C   0  0  0  0  0  0  0  0  0  0  0  0
    2.5095    1.4489    0.0000 N   0  0  0  0  0  0  0  0  0  0  0  0
    3.8086    2.1989    0.0000 C   0  0  0  0  0  0  0  0  0  0  0  0
  1  2  1  0
  2  3  2  0
  3  4  1  0
  4  5  2  0
  5  6  1  0
  6  7  2  0
  7  8  1  0
  7  9  1  0
  9 10  1  0
  9 11  2  0
 11 12  1  0
 12 13  1  0
 13 14  1  0
 14 15  1  0
 15 16  1  0
 15  2  1  0
M  END
>  <Title>  (1134) 
idABRPgen8

$$$$

     RDKit          2D

 37 42  0  0  0  0  0  0  0  0999 V2000
    4.6740   -4.8322    0.0000 C   0  0  0  0  0  0  0  0  0  0  0  0
    3.3037   -4.2221    0.0000 C   0  0  0  0  0  0  0  0  0  0  0  0
    2.0046   -4.9721    0.0000 C   0  0  0  0  0  0  0  0  0  0  0  0
    0.8899   -3.9684    0.0000 C   0  0  0  0  0  0  0  0  0  0  0  0
    1.5000   -2.5981    0.0000 C   0  0  0  0  0  0  0  0  0  0  0  0
    0.7500   -1.2990    0.0000 C   0  0  0  0  0  0  0  0  0  0  0  0
    1.5000    0.0000    0.0000 C   0  0  0  0  0  0  0  0  0  0  0  0
    0.7500    1.2990    0.0000 C   0  0  0  0  0  0  0  0  0  0  0  0
    1.5000    2.5981    0.0000 C   0  0  0  0  0  0  0  0  0  0  0  0
    3.0000    2.5981    0.0000 C   0  0  0  0  0  0  0  0  0  0  0  0
    3.7500    3.8971    0.0000 C   0  0  0  0  0  0  0  0  0  0  0  0
    3.0000    5.1962    0.0000 C   0  0  0  0  0  0  0  0  0  0  0  0
    1.5000    5.1962    0.0000 N   0  0  0  0  0  0  0  0  0  0  0  0
    0.7500    3.8971    0.0000 C   0  0  0  0  0  0  0  0  0  0  0  0
   -0.7500    3.8971    0.0000 N   0  0  0  0  0  0  0  0  0  0  0  0
   -1.6317    2.6836    0.0000 C   0  0  0  0  0  0  0  0  0  0  0  0
   -3.0583    3.1471    0.0000 C   0  0  0  0  0  0  0  0  0  0  0  0
   -3.0583    4.6471    0.0000 N   0  0  0  0  0  0  0  0  0  0  0  0
   -1.6317    5.1106    0.0000 C   0  0  0  0  0  0  0  0  0  0  0  0
   -0.7500    1.2990    0.0000 C   0  0  0  0  0  0  0  0  0  0  0  0
   -1.5000    0.0000    0.0000 C   0  0  0  0  0  0  0  0  0  0  0  0
   -0.7500   -1.2990    0.0000 C   0  0  0  0  0  0  0  0  0  0  0  0
   -1.5000   -2.5981    0.0000 N   0  0  0  0  0  0  0  0  0  0  0  0
   -0.8899   -3.9684    0.0000 N   0  0  0  0  0  0  0  0  0  0  0  0
   -2.0046   -4.9721    0.0000 N   0  0  0  0  0  0  0  0  0  0  0  0
   -3.3037   -4.2221    0.0000 N   0  0  0  0  0  0  0  0  0  0  0  0
   -2.9918   -2.7549    0.0000 C   0  0  0  0  0  0  0  0  0  0  0  0
   -3.9955   -1.6402    0.0000 C   0  0  0  0  0  0  0  0  0  0  0  0
   -3.5320   -0.2136    0.0000 C   0  0  0  0  0  0  0  0  0  0  0  0
   -4.5356    0.9012    0.0000 C   0  0  0  0  0  0  0  0  0  0  0  0
   -6.0029    0.5893    0.0000 C   0  0  0  0  0  0  0  0  0  0  0  0
   -7.0066    1.7040    0.0000 C   0  0  0  0  0  0  0  0  0  0  0  0
   -6.4664   -0.8373    0.0000 C   0  0  0  0  0  0  0  0  0  0  0  0
   -7.9336   -1.1492    0.0000 O   0  0  0  0  0  0  0  0  0  0  0  0
   -5.4627   -1.9520    0.0000 N   0  0  0  0  0  0  0  0  0  0  0  0
    2.9918   -2.7549    0.0000 C   0  0  0  0  0  0  0  0  0  0  0  0
    3.9955   -1.6402    0.0000 O   0  0  0  0  0  0  0  0  0  0  0  0
  1  2  1  0
  2  3  2  0
  3  4  1  0
  4  5  2  0
  5  6  1  0
  6  7  2  0
  7  8  1  0
  8  9  1  0
  9 10  2  0
 10 11  1  0
 11 12  2  0
 12 13  1  0
 13 14  2  0
 14 15  1  0
 15 16  1  0
 16 17  2  0
 17 18  1  0
 18 19  2  0
  8 20  2  0
 20 21  1  0
 21 22  2  0
 22 23  1  0
 23 24  1  0
 24 25  2  0
 25 26  1  0
 26 27  2  0
 27 28  1  0
 28 29  2  0
 29 30  1  0
 30 31  2  0
 31 32  1  0
 31 33  1  0
 33 34  2  0
 33 35  1  0
  5 36  1  0
 36 37  2  0
 36  2  1  0
 22  6  1  0
 27 23  1  0
 35 28  1  0
 14  9  1  0
 19 15  1  0
M  END
>  <Title>  (1135) 
idABRQgen8

$$$$

     RDKit          2D

 39 43  0  0  0  0  0  0  0  0999 V2000
    3.4598   -0.0000    0.0000 C   0  0  0  0  0  0  0  0  0  0  0  0
    1.9598    0.0000    0.0000 C   0  0  0  0  0  0  0  0  0  0  0  0
    1.3858   -1.3858    0.0000 C   0  0  0  0  0  0  0  0  0  0  0  0
   -0.0000   -1.9598    0.0000 C   0  0  0  0  0  0  0  0  0  0  0  0
   -1.3858   -1.3858    0.0000 C   0  0  0  0  0  0  0  0  0  0  0  0
   -2.4465   -2.4465    0.0000 C   0  0  0  0  0  0  0  0  0  0  0  0
   -2.0583   -3.8954    0.0000 O   0  0  0  0  0  0  0  0  0  0  0  0
   -3.8954   -2.0583    0.0000 N   0  0  0  0  0  0  0  0  0  0  0  0
   -4.9560   -3.1189    0.0000 C   0  0  0  0  0  0  0  0  0  0  0  0
   -4.7214   -4.6004    0.0000 N   0  0  0  0  0  0  0  0  0  0  0  0
   -6.0579   -5.2814    0.0000 N   0  0  0  0  0  0  0  0  0  0  0  0
   -7.1185   -4.2208    0.0000 N   0  0  0  0  0  0  0  0  0  0  0  0
   -6.4376   -2.8843    0.0000 N   0  0  0  0  0  0  0  0  0  0  0  0
   -7.1185   -1.5477    0.0000 C   0  0  0  0  0  0  0  0  0  0  0  0
   -6.3016   -0.2897    0.0000 C   0  0  0  0  0  0  0  0  0  0  0  0
   -6.9826    1.0468    0.0000 C   0  0  0  0  0  0  0  0  0  0  0  0
   -8.4805    1.1253    0.0000 C   0  0  0  0  0  0  0  0  0  0  0  0
   -9.1615    2.4618    0.0000 C   0  0  0  0  0  0  0  0  0  0  0  0
   -9.2975   -0.1327    0.0000 C   0  0  0  0  0  0  0  0  0  0  0  0
   -8.6165   -1.4692    0.0000 C   0  0  0  0  0  0  0  0  0  0  0  0
   -9.4334   -2.7273    0.0000 N   0  0  0  0  0  0  0  0  0  0  0  0
   -8.7525   -4.0638    0.0000 N   0  0  0  0  0  0  0  0  0  0  0  0
   -9.5694   -5.3218    0.0000 N   0  0  0  0  0  0  0  0  0  0  0  0
  -11.0674   -5.2433    0.0000 N   0  0  0  0  0  0  0  0  0  0  0  0
  -11.7484   -3.9068    0.0000 N   0  0  0  0  0  0  0  0  0  0  0  0
  -10.9314   -2.6487    0.0000 N   0  0  0  0  0  0  0  0  0  0  0  0
  -11.6124   -1.3122    0.0000 C   0  0  0  0  0  0  0  0  0  0  0  0
  -13.1103   -1.2337    0.0000 C   0  0  0  0  0  0  0  0  0  0  0  0
  -13.7913    0.1028    0.0000 C   0  0  0  0  0  0  0  0  0  0  0  0
  -12.9744    1.3608    0.0000 C   0  0  0  0  0  0  0  0  0  0  0  0
  -13.6553    2.6973    0.0000 C   0  0  0  0  0  0  0  0  0  0  0  0
  -11.4764    1.2823    0.0000 C   0  0  0  0  0  0  0  0  0  0  0  0
  -10.6594    2.5403    0.0000 O   0  0  0  0  0  0  0  0  0  0  0  0
  -10.7954   -0.0542    0.0000 N   0  0  0  0  0  0  0  0  0  0  0  0
   -1.9598    0.0000    0.0000 N   0  0  0  0  0  0  0  0  0  0  0  0
   -1.3858    1.3858    0.0000 N   0  0  0  0  0  0  0  0  0  0  0  0
    0.0000    1.9598    0.0000 N   0  0  0  0  0  0  0  0  0  0  0  0
    1.3858    1.3858    0.0000 C   0  0  0  0  0  0  0  0  0  0  0  0
    2.4465    2.4465    0.0000 O   0  0  0  0  0  0  0  0  0  0  0  0
  1  2  1  0
  2  3  2  0
  3  4  1  0
  4  5  2  0
  5  6  1  0
  6  7  2  0
  6  8  1  0
  8  9  1  0
  9 10  2  0
 10 11  1  0
 11 12  2  0
 12 13  1  0
 13 14  1  0
 14 15  2  0
 15 16  1  0
 16 17  2  0
 17 18  1  0
 17 19  1  0
 19 20  2  0
 20 21  1  0
 21 22  1  0
 22 23  2  0
 23 24  1  0
 24 25  2  0
 25 26  1  0
 26 27  1  0
 27 28  2  0
 28 29  1  0
 29 30  2  0
 30 31  1  0
 30 32  1  0
 32 33  2  0
 32 34  1  0
  5 35  1  0
 35 36  2  0
 36 37  1  0
 37 38  2  0
 38 39  1  0
 38  2  1  0
 13  9  1  0
 20 14  1  0
 26 21  1  0
 34 27  1  0
M  END
>  <Title>  (1136) 
idABRRgen8

$$$$

     RDKit          2D

 11 11  0  0  0  0  0  0  0  0999 V2000
    3.4598   -0.0000    0.0000 C   0  0  0  0  0  0  0  0  0  0  0  0
    1.9598    0.0000    0.0000 C   0  0  0  0  0  0  0  0  0  0  0  0
    1.3858   -1.3858    0.0000 C   0  0  0  0  0  0  0  0  0  0  0  0
   -0.0000   -1.9598    0.0000 C   0  0  0  0  0  0  0  0  0  0  0  0
   -1.3858   -1.3858    0.0000 C   0  0  0  0  0  0  0  0  0  0  0  0
   -1.9598    0.0000    0.0000 C   0  0  0  0  0  0  0  0  0  0  0  0
   -1.3858    1.3858    0.0000 C   0  0  0  0  0  0  0  0  0  0  0  0
   -2.4465    2.4465    0.0000 F   0  0  0  0  0  0  0  0  0  0  0  0
    0.0000    1.9598    0.0000 C   0  0  0  0  0  0  0  0  0  0  0  0
    0.0000    3.4598    0.0000 O   0  0  0  0  0  0  0  0  0  0  0  0
    1.3858    1.3858    0.0000 C   0  0  0  0  0  0  0  0  0  0  0  0
  1  2  1  0
  2  3  2  0
  3  4  1  0
  4  5  2  0
  5  6  1  0
  6  7  2  0
  7  8  1  0
  7  9  1  0
  9 10  1  0
  9 11  1  0
 11  2  1  0
M  END
>  <Title>  (1137) 
idABRSgen8

$$$$

     RDKit          2D

 34 39  0  0  0  0  0  0  0  0999 V2000
  -10.1624    4.2767    0.0000 C   0  0  0  0  0  0  0  0  0  0  0  0
   -8.9488    3.3950    0.0000 C   0  0  0  0  0  0  0  0  0  0  0  0
   -9.1056    1.9033    0.0000 C   0  0  0  0  0  0  0  0  0  0  0  0
   -7.8921    1.0216    0.0000 C   0  0  0  0  0  0  0  0  0  0  0  0
   -6.5218    1.6317    0.0000 C   0  0  0  0  0  0  0  0  0  0  0  0
   -5.3083    0.7500    0.0000 C   0  0  0  0  0  0  0  0  0  0  0  0
   -5.3083   -0.7500    0.0000 N   0  0  0  0  0  0  0  0  0  0  0  0
   -3.8817   -1.2135    0.0000 N   0  0  0  0  0  0  0  0  0  0  0  0
   -3.0000    0.0000    0.0000 N   0  0  0  0  0  0  0  0  0  0  0  0
   -3.8817    1.2135    0.0000 N   0  0  0  0  0  0  0  0  0  0  0  0
   -3.4182    2.6401    0.0000 C   0  0  0  0  0  0  0  0  0  0  0  0
   -4.2998    3.8536    0.0000 C   0  0  0  0  0  0  0  0  0  0  0  0
   -3.4182    5.0672    0.0000 N   0  0  0  0  0  0  0  0  0  0  0  0
   -1.9916    4.6036    0.0000 N   0  0  0  0  0  0  0  0  0  0  0  0
   -1.9916    3.1036    0.0000 N   0  0  0  0  0  0  0  0  0  0  0  0
   -0.7780    2.2220    0.0000 C   0  0  0  0  0  0  0  0  0  0  0  0
   -0.7780    0.7220    0.0000 C   0  0  0  0  0  0  0  0  0  0  0  0
    0.6485    0.2584    0.0000 C   0  0  0  0  0  0  0  0  0  0  0  0
    1.5302    1.4720    0.0000 C   0  0  0  0  0  0  0  0  0  0  0  0
    3.0302    1.4720    0.0000 C   0  0  0  0  0  0  0  0  0  0  0  0
    3.7802    2.7710    0.0000 C   0  0  0  0  0  0  0  0  0  0  0  0
    5.2802    2.7710    0.0000 N   0  0  0  0  0  0  0  0  0  0  0  0
    6.0302    1.4720    0.0000 N   0  0  0  0  0  0  0  0  0  0  0  0
    5.2802    0.1729    0.0000 N   0  0  0  0  0  0  0  0  0  0  0  0
    3.7802    0.1729    0.0000 C   0  0  0  0  0  0  0  0  0  0  0  0
    3.0302   -1.1261    0.0000 C   0  0  0  0  0  0  0  0  0  0  0  0
    3.7802   -2.4252    0.0000 C   0  0  0  0  0  0  0  0  0  0  0  0
    3.0302   -3.7242    0.0000 C   0  0  0  0  0  0  0  0  0  0  0  0
    1.5302   -3.7242    0.0000 C   0  0  0  0  0  0  0  0  0  0  0  0
    0.7802   -2.4252    0.0000 C   0  0  0  0  0  0  0  0  0  0  0  0
    1.5302   -1.1261    0.0000 C   0  0  0  0  0  0  0  0  0  0  0  0
    0.6485    2.6855    0.0000 N   0  0  0  0  0  0  0  0  0  0  0  0
   -6.3650    3.1235    0.0000 C   0  0  0  0  0  0  0  0  0  0  0  0
   -7.5785    4.0051    0.0000 C   0  0  0  0  0  0  0  0  0  0  0  0
  1  2  1  0
  2  3  2  0
  3  4  1  0
  4  5  2  0
  5  6  1  0
  6  7  2  0
  7  8  1  0
  8  9  2  0
  9 10  1  0
 10 11  1  0
 11 12  2  0
 12 13  1  0
 13 14  2  0
 14 15  1  0
 15 16  1  0
 16 17  1  0
 17 18  2  0
 18 19  1  0
 19 20  1  0
 20 21  2  0
 21 22  1  0
 22 23  2  0
 23 24  1  0
 24 25  2  0
 25 26  1  0
 26 27  2  0
 27 28  1  0
 28 29  2  0
 29 30  1  0
 30 31  2  0
 19 32  1  0
  5 33  1  0
 33 34  2  0
 34  2  1  0
 10  6  1  0
 15 11  1  0
 32 16  1  0
 25 20  1  0
 31 26  1  0
M  END
>  <Title>  (1138) 
idABRTgen8

$$$$

     RDKit          2D

 14 14  0  0  0  0  0  0  0  0999 V2000
    5.1478   -1.2990    0.0000 O   0  0  0  0  0  0  0  0  0  0  0  0
    4.3978    0.0000    0.0000 C   0  0  0  0  0  0  0  0  0  0  0  0
    2.8978    0.0000    0.0000 C   0  0  0  0  0  0  0  0  0  0  0  0
    2.5095   -1.4489    0.0000 C   0  0  0  0  0  0  0  0  0  0  0  0
    1.4489   -2.5095    0.0000 C   0  0  0  0  0  0  0  0  0  0  0  0
   -0.0000   -2.8978    0.0000 C   0  0  0  0  0  0  0  0  0  0  0  0
   -1.4489   -2.5095    0.0000 C   0  0  0  0  0  0  0  0  0  0  0  0
   -2.5095   -1.4489    0.0000 C   0  0  0  0  0  0  0  0  0  0  0  0
   -2.8978    0.0000    0.0000 N   0  0  0  0  0  0  0  0  0  0  0  0
   -2.5095    1.4489    0.0000 C   0  0  0  0  0  0  0  0  0  0  0  0
   -1.4489    2.5095    0.0000 C   0  0  0  0  0  0  0  0  0  0  0  0
    0.0000    2.8978    0.0000 C   0  0  0  0  0  0  0  0  0  0  0  0
    1.4489    2.5095    0.0000 C   0  0  0  0  0  0  0  0  0  0  0  0
    2.5095    1.4489    0.0000 C   0  0  0  0  0  0  0  0  0  0  0  0
  1  2  1  0
  2  3  1  0
  3  4  2  0
  4  5  1  0
  5  6  2  0
  6  7  1  0
  7  8  2  0
  8  9  1  0
  9 10  2  0
 10 11  1  0
 11 12  2  0
 12 13  1  0
 13 14  2  0
 14  3  1  0
M  END
>  <Title>  (1139) 
idABRUgen8

$$$$

     RDKit          2D

 22 24  0  0  0  0  0  0  0  0999 V2000
    3.0000    0.0000    0.0000 C   0  0  0  0  0  0  0  0  0  0  0  0
    1.5000    0.0000    0.0000 C   0  0  0  0  0  0  0  0  0  0  0  0
    0.7500   -1.2990    0.0000 C   0  0  0  0  0  0  0  0  0  0  0  0
   -0.7500   -1.2990    0.0000 C   0  0  0  0  0  0  0  0  0  0  0  0
   -1.5000    0.0000    0.0000 C   0  0  0  0  0  0  0  0  0  0  0  0
   -3.0000    0.0000    0.0000 C   0  0  0  0  0  0  0  0  0  0  0  0
   -3.8817   -1.2135    0.0000 N   0  0  0  0  0  0  0  0  0  0  0  0
   -5.3083   -0.7500    0.0000 N   0  0  0  0  0  0  0  0  0  0  0  0
   -5.3083    0.7500    0.0000 N   0  0  0  0  0  0  0  0  0  0  0  0
   -3.8817    1.2135    0.0000 N   0  0  0  0  0  0  0  0  0  0  0  0
   -3.4182    2.6401    0.0000 C   0  0  0  0  0  0  0  0  0  0  0  0
   -1.9509    2.9520    0.0000 C   0  0  0  0  0  0  0  0  0  0  0  0
   -1.4874    4.3786    0.0000 C   0  0  0  0  0  0  0  0  0  0  0  0
   -2.4911    5.4933    0.0000 C   0  0  0  0  0  0  0  0  0  0  0  0
   -2.0276    6.9199    0.0000 C   0  0  0  0  0  0  0  0  0  0  0  0
   -3.0313    8.0346    0.0000 O   0  0  0  0  0  0  0  0  0  0  0  0
   -0.5604    7.2317    0.0000 N   0  0  0  0  0  0  0  0  0  0  0  0
   -0.0968    8.6583    0.0000 O   0  0  0  0  0  0  0  0  0  0  0  0
   -3.9583    5.1814    0.0000 C   0  0  0  0  0  0  0  0  0  0  0  0
   -4.4218    3.7548    0.0000 C   0  0  0  0  0  0  0  0  0  0  0  0
   -0.7500    1.2990    0.0000 N   0  0  0  0  0  0  0  0  0  0  0  0
    0.7500    1.2990    0.0000 C   0  0  0  0  0  0  0  0  0  0  0  0
  1  2  1  0
  2  3  2  0
  3  4  1  0
  4  5  2  0
  5  6  1  0
  6  7  2  0
  7  8  1  0
  8  9  2  0
  9 10  1  0
 10 11  1  0
 11 12  2  0
 12 13  1  0
 13 14  2  0
 14 15  1  0
 15 16  2  0
 15 17  1  0
 17 18  1  0
 14 19  1  0
 19 20  1  0
  5 21  1  0
 21 22  2  0
 22  2  1  0
 10  6  1  0
 20 11  1  0
M  END
>  <Title>  (1140) 
idABRVgen8

$$$$

     RDKit          2D

 51 58  0  0  0  0  0  0  0  0999 V2000
  -11.1376   -7.2946    0.0000 C   0  0  0  0  0  0  0  0  0  0  0  0
   -9.6933   -7.6995    0.0000 C   0  0  0  0  0  0  0  0  0  0  0  0
   -9.1719   -9.1060    0.0000 C   0  0  0  0  0  0  0  0  0  0  0  0
   -7.6732   -9.0448    0.0000 C   0  0  0  0  0  0  0  0  0  0  0  0
   -7.2682   -7.6005    0.0000 C   0  0  0  0  0  0  0  0  0  0  0  0
   -5.8617   -7.0792    0.0000 C   0  0  0  0  0  0  0  0  0  0  0  0
   -5.4568   -5.6349    0.0000 N   0  0  0  0  0  0  0  0  0  0  0  0
   -3.9580   -5.5737    0.0000 N   0  0  0  0  0  0  0  0  0  0  0  0
   -3.4367   -6.9802    0.0000 N   0  0  0  0  0  0  0  0  0  0  0  0
   -4.6133   -7.9107    0.0000 N   0  0  0  0  0  0  0  0  0  0  0  0
   -4.5521   -9.4094    0.0000 C   0  0  0  0  0  0  0  0  0  0  0  0
   -5.8759  -10.1148    0.0000 N   0  0  0  0  0  0  0  0  0  0  0  0
   -6.1497  -11.5896    0.0000 C   0  0  0  0  0  0  0  0  0  0  0  0
   -5.1674  -12.7232    0.0000 C   0  0  0  0  0  0  0  0  0  0  0  0
   -3.6687  -12.6620    0.0000 C   0  0  0  0  0  0  0  0  0  0  0  0
   -2.7821  -11.4521    0.0000 C   0  0  0  0  0  0  0  0  0  0  0  0
   -3.1752  -10.0046    0.0000 C   0  0  0  0  0  0  0  0  0  0  0  0
   -2.0416   -9.0223    0.0000 C   0  0  0  0  0  0  0  0  0  0  0  0
   -2.6647   -7.6578    0.0000 C   0  0  0  0  0  0  0  0  0  0  0  0
   -2.4512   -6.1731    0.0000 C   0  0  0  0  0  0  0  0  0  0  0  0
   -1.4095   -5.0395    0.0000 C   0  0  0  0  0  0  0  0  0  0  0  0
    0.0000   -5.5525    0.0000 C   0  0  0  0  0  0  0  0  0  0  0  0
    0.0000   -7.0525    0.0000 O   0  0  0  0  0  0  0  0  0  0  0  0
    1.4095   -5.0395    0.0000 C   0  0  0  0  0  0  0  0  0  0  0  0
    2.3918   -6.1731    0.0000 C   0  0  0  0  0  0  0  0  0  0  0  0
    2.6053   -7.6578    0.0000 C   0  0  0  0  0  0  0  0  0  0  0  0
    1.9822   -9.0223    0.0000 C   0  0  0  0  0  0  0  0  0  0  0  0
    3.1158  -10.0046    0.0000 C   0  0  0  0  0  0  0  0  0  0  0  0
    4.5333   -9.5140    0.0000 O   0  0  0  0  0  0  0  0  0  0  0  0
    2.8319  -11.4775    0.0000 N   0  0  0  0  0  0  0  0  0  0  0  0
    3.9656  -12.4597    0.0000 O   0  0  0  0  0  0  0  0  0  0  0  0
    0.7203   -9.8332    0.0000 N   0  0  0  0  0  0  0  0  0  0  0  0
   -0.7797   -9.8332    0.0000 C   0  0  0  0  0  0  0  0  0  0  0  0
   -1.2023  -11.2725    0.0000 O   0  0  0  0  0  0  0  0  0  0  0  0
    2.1595   -3.7404    0.0000 N   0  0  0  0  0  0  0  0  0  0  0  0
    3.6449   -3.9492    0.0000 C   0  0  0  0  0  0  0  0  0  0  0  0
    4.3025   -2.6010    0.0000 C   0  0  0  0  0  0  0  0  0  0  0  0
    3.2235   -1.5590    0.0000 C   0  0  0  0  0  0  0  0  0  0  0  0
    1.8991   -2.2632    0.0000 C   0  0  0  0  0  0  0  0  0  0  0  0
    0.7500   -1.2990    0.0000 C   0  0  0  0  0  0  0  0  0  0  0  0
    1.5000    0.0000    0.0000 C   0  0  0  0  0  0  0  0  0  0  0  0
    0.7500    1.2990    0.0000 C   0  0  0  0  0  0  0  0  0  0  0  0
   -0.7500    1.2990    0.0000 C   0  0  0  0  0  0  0  0  0  0  0  0
   -1.5000    0.0000    0.0000 C   0  0  0  0  0  0  0  0  0  0  0  0
   -0.7500   -1.2990    0.0000 C   0  0  0  0  0  0  0  0  0  0  0  0
   -1.8991   -2.2632    0.0000 N   0  0  0  0  0  0  0  0  0  0  0  0
   -3.2235   -1.5590    0.0000 C   0  0  0  0  0  0  0  0  0  0  0  0
   -4.3025   -2.6010    0.0000 C   0  0  0  0  0  0  0  0  0  0  0  0
   -3.6449   -3.9492    0.0000 C   0  0  0  0  0  0  0  0  0  0  0  0
   -2.1595   -3.7404    0.0000 C   0  0  0  0  0  0  0  0  0  0  0  0
   -8.5167   -6.7691    0.0000 N   0  0  0  0  0  0  0  0  0  0  0  0
  1  2  1  0
  2  3  2  0
  3  4  1  0
  4  5  2  0
  5  6  1  0
  6  7  2  0
  7  8  1  0
  8  9  2  0
  9 10  1  0
 10 11  1  0
 11 12  1  0
 12 13  1  0
 13 14  1  0
 14 15  2  0
 15 16  1  0
 16 17  2  0
 17 18  1  0
 18 19  2  0
 19 20  1  0
 20 21  2  0
 21 22  1  0
 22 23  2  0
 22 24  1  0
 24 25  2  0
 25 26  1  0
 26 27  2  0
 27 28  1  0
 28 29  2  0
 28 30  1  0
 30 31  1  0
 27 32  1  0
 32 33  1  0
 33 34  2  0
 24 35  1  0
 35 36  1  0
 36 37  2  0
 37 38  1  0
 38 39  2  0
 39 40  1  0
 40 41  2  0
 41 42  1  0
 42 43  2  0
 43 44  1  0
 44 45  2  0
 45 46  1  0
 46 47  1  0
 47 48  2  0
 48 49  1  0
 49 50  2  0
  5 51  1  0
 51  2  1  0
 10  6  1  0
 17 11  1  0
 33 18  1  0
 39 35  1  0
 45 40  1  0
 50 46  1  0
 50 21  1  0
M  END
>  <Title>  (1141) 
idABRWgen8

$$$$

     RDKit          2D

 38 43  0  0  0  0  0  0  0  0999 V2000
    0.5485   -3.5983    0.0000 C   0  0  0  0  0  0  0  0  0  0  0  0
    1.2295   -2.2618    0.0000 C   0  0  0  0  0  0  0  0  0  0  0  0
    2.7275   -2.1833    0.0000 C   0  0  0  0  0  0  0  0  0  0  0  0
    3.4085   -0.8468    0.0000 C   0  0  0  0  0  0  0  0  0  0  0  0
    2.5915    0.4112    0.0000 C   0  0  0  0  0  0  0  0  0  0  0  0
    3.2725    1.7477    0.0000 C   0  0  0  0  0  0  0  0  0  0  0  0
    2.5915    3.0842    0.0000 N   0  0  0  0  0  0  0  0  0  0  0  0
    3.6522    4.1449    0.0000 N   0  0  0  0  0  0  0  0  0  0  0  0
    4.9887    3.4639    0.0000 N   0  0  0  0  0  0  0  0  0  0  0  0
    4.7540    1.9824    0.0000 N   0  0  0  0  0  0  0  0  0  0  0  0
    5.8147    0.9217    0.0000 C   0  0  0  0  0  0  0  0  0  0  0  0
    7.2962    1.1564    0.0000 C   0  0  0  0  0  0  0  0  0  0  0  0
    7.9772   -0.1801    0.0000 C   0  0  0  0  0  0  0  0  0  0  0  0
    6.9165   -1.2408    0.0000 C   0  0  0  0  0  0  0  0  0  0  0  0
    7.1512   -2.7223    0.0000 C   0  0  0  0  0  0  0  0  0  0  0  0
    6.0905   -3.7830    0.0000 N   0  0  0  0  0  0  0  0  0  0  0  0
    6.7715   -5.1195    0.0000 N   0  0  0  0  0  0  0  0  0  0  0  0
    8.2530   -4.8848    0.0000 N   0  0  0  0  0  0  0  0  0  0  0  0
    8.4877   -3.4033    0.0000 N   0  0  0  0  0  0  0  0  0  0  0  0
    9.8242   -2.7223    0.0000 C   0  0  0  0  0  0  0  0  0  0  0  0
   11.1607   -3.4033    0.0000 C   0  0  0  0  0  0  0  0  0  0  0  0
   12.2214   -2.3427    0.0000 C   0  0  0  0  0  0  0  0  0  0  0  0
   11.5404   -1.0061    0.0000 C   0  0  0  0  0  0  0  0  0  0  0  0
   12.2214    0.3304    0.0000 C   0  0  0  0  0  0  0  0  0  0  0  0
   11.2472    1.4710    0.0000 C   0  0  0  0  0  0  0  0  0  0  0  0
   11.3649    2.9663    0.0000 N   0  0  0  0  0  0  0  0  0  0  0  0
   12.5055    3.9405    0.0000 N   0  0  0  0  0  0  0  0  0  0  0  0
   14.0009    3.8228    0.0000 N   0  0  0  0  0  0  0  0  0  0  0  0
   14.9751    2.6822    0.0000 N   0  0  0  0  0  0  0  0  0  0  0  0
   14.8574    1.1868    0.0000 N   0  0  0  0  0  0  0  0  0  0  0  0
   13.7168    0.2127    0.0000 C   0  0  0  0  0  0  0  0  0  0  0  0
   10.0589   -1.2408    0.0000 C   0  0  0  0  0  0  0  0  0  0  0  0
    8.9982   -0.1801    0.0000 O   0  0  0  0  0  0  0  0  0  0  0  0
    5.5800   -0.5598    0.0000 C   0  0  0  0  0  0  0  0  0  0  0  0
    4.2435   -1.2408    0.0000 O   0  0  0  0  0  0  0  0  0  0  0  0
    1.0936    0.3327    0.0000 C   0  0  0  0  0  0  0  0  0  0  0  0
    0.2766    1.5907    0.0000 O   0  0  0  0  0  0  0  0  0  0  0  0
    0.4126   -1.0038    0.0000 N   0  0  0  0  0  0  0  0  0  0  0  0
  1  2  1  0
  2  3  2  0
  3  4  1  0
  4  5  2  0
  5  6  1  0
  6  7  2  0
  7  8  1  0
  8  9  2  0
  9 10  1  0
 10 11  1  0
 11 12  2  0
 12 13  1  0
 13 14  2  0
 14 15  1  0
 15 16  2  0
 16 17  1  0
 17 18  2  0
 18 19  1  0
 19 20  1  0
 20 21  2  0
 21 22  1  0
 22 23  2  0
 23 24  1  0
 24 25  2  0
 25 26  1  0
 26 27  2  0
 27 28  1  0
 28 29  2  0
 29 30  1  0
 30 31  2  0
 23 32  1  0
 32 33  2  0
 14 34  1  0
 34 35  2  0
  5 36  1  0
 36 37  2  0
 36 38  1  0
 38  2  1  0
 10  6  1  0
 34 11  1  0
 19 15  1  0
 32 20  1  0
 31 24  1  0
M  END
>  <Title>  (1142) 
idABRXgen8

$$$$

     RDKit          2D

 44 50  0  0  0  0  0  0  0  0999 V2000
    3.0000    0.0000    0.0000 C   0  0  0  0  0  0  0  0  0  0  0  0
    1.5000    0.0000    0.0000 C   0  0  0  0  0  0  0  0  0  0  0  0
    0.7500   -1.2990    0.0000 C   0  0  0  0  0  0  0  0  0  0  0  0
   -0.7500   -1.2990    0.0000 C   0  0  0  0  0  0  0  0  0  0  0  0
   -1.5000    0.0000    0.0000 C   0  0  0  0  0  0  0  0  0  0  0  0
   -3.0000    0.0000    0.0000 C   0  0  0  0  0  0  0  0  0  0  0  0
   -3.8817   -1.2135    0.0000 N   0  0  0  0  0  0  0  0  0  0  0  0
   -5.3083   -0.7500    0.0000 N   0  0  0  0  0  0  0  0  0  0  0  0
   -5.3083    0.7500    0.0000 N   0  0  0  0  0  0  0  0  0  0  0  0
   -3.8817    1.2135    0.0000 N   0  0  0  0  0  0  0  0  0  0  0  0
   -3.4182    2.6401    0.0000 C   0  0  0  0  0  0  0  0  0  0  0  0
   -1.9509    2.9520    0.0000 C   0  0  0  0  0  0  0  0  0  0  0  0
   -1.4874    4.3786    0.0000 C   0  0  0  0  0  0  0  0  0  0  0  0
   -2.4911    5.4933    0.0000 C   0  0  0  0  0  0  0  0  0  0  0  0
   -3.9583    5.1814    0.0000 C   0  0  0  0  0  0  0  0  0  0  0  0
   -4.4218    3.7548    0.0000 C   0  0  0  0  0  0  0  0  0  0  0  0
   -5.8891    3.4430    0.0000 C   0  0  0  0  0  0  0  0  0  0  0  0
   -6.4992    2.0726    0.0000 C   0  0  0  0  0  0  0  0  0  0  0  0
   -7.9910    2.2294    0.0000 C   0  0  0  0  0  0  0  0  0  0  0  0
   -8.3028    3.6967    0.0000 C   0  0  0  0  0  0  0  0  0  0  0  0
   -9.6731    4.3068    0.0000 C   0  0  0  0  0  0  0  0  0  0  0  0
   -9.9850    5.7740    0.0000 N   0  0  0  0  0  0  0  0  0  0  0  0
  -11.4768    5.9308    0.0000 N   0  0  0  0  0  0  0  0  0  0  0  0
  -12.0869    4.5605    0.0000 N   0  0  0  0  0  0  0  0  0  0  0  0
  -10.9722    3.5568    0.0000 N   0  0  0  0  0  0  0  0  0  0  0  0
  -11.1290    2.0650    0.0000 C   0  0  0  0  0  0  0  0  0  0  0  0
   -9.9154    1.1833    0.0000 C   0  0  0  0  0  0  0  0  0  0  0  0
  -10.0722   -0.3085    0.0000 C   0  0  0  0  0  0  0  0  0  0  0  0
  -11.4426   -0.9186    0.0000 C   0  0  0  0  0  0  0  0  0  0  0  0
  -12.6561   -0.0369    0.0000 C   0  0  0  0  0  0  0  0  0  0  0  0
  -12.4993    1.4549    0.0000 C   0  0  0  0  0  0  0  0  0  0  0  0
   -7.0038    4.4467    0.0000 C   0  0  0  0  0  0  0  0  0  0  0  0
   -6.8470    5.9384    0.0000 C   0  0  0  0  0  0  0  0  0  0  0  0
   -5.4767    6.5485    0.0000 C   0  0  0  0  0  0  0  0  0  0  0  0
   -5.3199    8.0403    0.0000 C   0  0  0  0  0  0  0  0  0  0  0  0
   -6.5334    8.9220    0.0000 C   0  0  0  0  0  0  0  0  0  0  0  0
   -6.3766   10.4138    0.0000 C   0  0  0  0  0  0  0  0  0  0  0  0
   -7.5901   11.2955    0.0000 O   0  0  0  0  0  0  0  0  0  0  0  0
   -5.0063   11.0239    0.0000 N   0  0  0  0  0  0  0  0  0  0  0  0
   -4.8495   12.5157    0.0000 O   0  0  0  0  0  0  0  0  0  0  0  0
   -7.9037    8.3119    0.0000 C   0  0  0  0  0  0  0  0  0  0  0  0
   -8.0605    6.8201    0.0000 C   0  0  0  0  0  0  0  0  0  0  0  0
   -0.7500    1.2990    0.0000 C   0  0  0  0  0  0  0  0  0  0  0  0
    0.7500    1.2990    0.0000 C   0  0  0  0  0  0  0  0  0  0  0  0
  1  2  1  0
  2  3  2  0
  3  4  1  0
  4  5  2  0
  5  6  1  0
  6  7  2  0
  7  8  1  0
  8  9  2  0
  9 10  1  0
 10 11  1  0
 11 12  1  0
 12 13  1  0
 13 14  1  0
 14 15  1  0
 15 16  1  0
 16 17  1  0
 17 18  2  0
 18 19  1  0
 19 20  2  0
 20 21  1  0
 21 22  2  0
 22 23  1  0
 23 24  2  0
 24 25  1  0
 25 26  1  0
 26 27  2  0
 27 28  1  0
 28 29  2  0
 29 30  1  0
 30 31  2  0
 20 32  1  0
 32 33  1  0
 33 34  2  0
 34 35  1  0
 35 36  2  0
 36 37  1  0
 37 38  2  0
 37 39  1  0
 39 40  1  0
 36 41  1  0
 41 42  1  0
  5 43  1  0
 43 44  2  0
 44  2  1  0
 10  6  1  0
 16 11  1  0
 32 17  1  0
 42 33  1  0
 25 21  1  0
 31 26  1  0
M  END
>  <Title>  (1143) 
idABRYgen8

$$$$

     RDKit          2D

 14 14  0  0  0  0  0  0  0  0999 V2000
    4.6771   -1.2990    0.0000 C   0  0  0  0  0  0  0  0  0  0  0  0
    3.9271    0.0000    0.0000 O   0  0  0  0  0  0  0  0  0  0  0  0
    2.4271    0.0000    0.0000 C   0  0  0  0  0  0  0  0  0  0  0  0
    1.9635   -1.4266    0.0000 C   0  0  0  0  0  0  0  0  0  0  0  0
    0.7500   -2.3083    0.0000 C   0  0  0  0  0  0  0  0  0  0  0  0
   -0.7500   -2.3083    0.0000 C   0  0  0  0  0  0  0  0  0  0  0  0
   -1.9635   -1.4266    0.0000 C   0  0  0  0  0  0  0  0  0  0  0  0
   -2.4271    0.0000    0.0000 C   0  0  0  0  0  0  0  0  0  0  0  0
   -3.9271    0.0000    0.0000 C   0  0  0  0  0  0  0  0  0  0  0  0
   -1.9635    1.4266    0.0000 C   0  0  0  0  0  0  0  0  0  0  0  0
   -3.1771    2.3083    0.0000 C   0  0  0  0  0  0  0  0  0  0  0  0
   -0.7500    2.3083    0.0000 C   0  0  0  0  0  0  0  0  0  0  0  0
    0.7500    2.3083    0.0000 C   0  0  0  0  0  0  0  0  0  0  0  0
    1.9635    1.4266    0.0000 C   0  0  0  0  0  0  0  0  0  0  0  0
  1  2  1  0
  2  3  1  0
  3  4  2  0
  4  5  1  0
  5  6  2  0
  6  7  1  0
  7  8  2  0
  8  9  1  0
  8 10  1  0
 10 11  1  0
 10 12  2  0
 12 13  1  0
 13 14  2  0
 14  3  1  0
M  END
>  <Title>  (1144) 
idABRZgen8

$$$$

     RDKit          2D

 13 13  0  0  0  0  0  0  0  0999 V2000
    4.6771   -1.2990    0.0000 C   0  0  0  0  0  0  0  0  0  0  0  0
    3.9271    0.0000    0.0000 O   0  0  0  0  0  0  0  0  0  0  0  0
    2.4271    0.0000    0.0000 C   0  0  0  0  0  0  0  0  0  0  0  0
    1.9635   -1.4266    0.0000 C   0  0  0  0  0  0  0  0  0  0  0  0
    0.7500   -2.3083    0.0000 C   0  0  0  0  0  0  0  0  0  0  0  0
   -0.7500   -2.3083    0.0000 C   0  0  0  0  0  0  0  0  0  0  0  0
   -1.9635   -1.4266    0.0000 C   0  0  0  0  0  0  0  0  0  0  0  0
   -2.4271    0.0000    0.0000 C   0  0  0  0  0  0  0  0  0  0  0  0
   -1.9635    1.4266    0.0000 C   0  0  0  0  0  0  0  0  0  0  0  0
   -0.7500    2.3083    0.0000 C   0  0  0  0  0  0  0  0  0  0  0  0
    0.7500    2.3083    0.0000 C   0  0  0  0  0  0  0  0  0  0  0  0
    1.9635    1.4266    0.0000 C   0  0  0  0  0  0  0  0  0  0  0  0
    3.1771    2.3083    0.0000 O   0  0  0  0  0  0  0  0  0  0  0  0
  1  2  1  0
  2  3  1  0
  3  4  2  0
  4  5  1  0
  5  6  2  0
  6  7  1  0
  7  8  2  0
  8  9  1  0
  9 10  2  0
 10 11  1  0
 11 12  2  0
 12 13  1  0
 12  3  1  0
M  END
>  <Title>  (1145) 
idABSAgen8

$$$$

     RDKit          2D

 27 28  0  0  0  0  0  0  0  0999 V2000
    9.4398    3.6315    0.0000 C   0  0  0  0  0  0  0  0  0  0  0  0
    8.1619    4.4170    0.0000 O   0  0  0  0  0  0  0  0  0  0  0  0
    6.8427    3.7031    0.0000 C   0  0  0  0  0  0  0  0  0  0  0  0
    6.9136    2.2048    0.0000 C   0  0  0  0  0  0  0  0  0  0  0  0
    5.7863    1.2152    0.0000 C   0  0  0  0  0  0  0  0  0  0  0  0
    4.3098    1.4795    0.0000 C   0  0  0  0  0  0  0  0  0  0  0  0
    4.5567    0.0000    0.0000 C   0  0  0  0  0  0  0  0  0  0  0  0
    4.3098   -1.4795    0.0000 C   0  0  0  0  0  0  0  0  0  0  0  0
    3.5958   -2.7988    0.0000 C   0  0  0  0  0  0  0  0  0  0  0  0
    2.4923   -3.8147    0.0000 C   0  0  0  0  0  0  0  0  0  0  0  0
    1.1186   -4.4172    0.0000 C   0  0  0  0  0  0  0  0  0  0  0  0
   -0.3763   -4.5411    0.0000 C   0  0  0  0  0  0  0  0  0  0  0  0
   -1.8304   -4.1729    0.0000 C   0  0  0  0  0  0  0  0  0  0  0  0
   -3.0861   -3.3524    0.0000 C   0  0  0  0  0  0  0  0  0  0  0  0
   -4.0075   -2.1687    0.0000 C   0  0  0  0  0  0  0  0  0  0  0  0
   -4.4945   -0.7500    0.0000 C   0  0  0  0  0  0  0  0  0  0  0  0
   -4.4945    0.7500    0.0000 C   0  0  0  0  0  0  0  0  0  0  0  0
   -4.0075    2.1687    0.0000 C   0  0  0  0  0  0  0  0  0  0  0  0
   -3.0861    3.3524    0.0000 C   0  0  0  0  0  0  0  0  0  0  0  0
   -1.8304    4.1729    0.0000 C   0  0  0  0  0  0  0  0  0  0  0  0
   -0.3763    4.5411    0.0000 C   0  0  0  0  0  0  0  0  0  0  0  0
    1.1186    4.4172    0.0000 C   0  0  0  0  0  0  0  0  0  0  0  0
    2.4923    3.8147    0.0000 C   0  0  0  0  0  0  0  0  0  0  0  0
    3.5958    2.7988    0.0000 C   0  0  0  0  0  0  0  0  0  0  0  0
    4.1821    4.1794    0.0000 C   0  0  0  0  0  0  0  0  0  0  0  0
    3.1925    5.3067    0.0000 O   0  0  0  0  0  0  0  0  0  0  0  0
    5.6271    4.5819    0.0000 N   0  0  0  0  0  0  0  0  0  0  0  0
  1  2  1  0
  2  3  1  0
  3  4  2  0
  4  5  1  0
  5  6  2  0
  6  7  1  0
  7  8  2  0
  8  9  1  0
  9 10  2  0
 10 11  1  0
 11 12  2  0
 12 13  1  0
 13 14  2  0
 14 15  1  0
 15 16  2  0
 16 17  1  0
 17 18  2  0
 18 19  1  0
 19 20  2  0
 20 21  1  0
 21 22  2  0
 22 23  1  0
 23 24  2  0
 24 25  1  0
 25 26  2  0
 25 27  1  0
 27  3  1  0
 24  6  1  0
M  END
>  <Title>  (1146) 
idABSBgen8

$$$$

     RDKit          2D

 35 40  0  0  0  0  0  0  0  0999 V2000
    3.0000    0.0000    0.0000 C   0  0  0  0  0  0  0  0  0  0  0  0
    1.5000    0.0000    0.0000 C   0  0  0  0  0  0  0  0  0  0  0  0
    0.7500    1.2990    0.0000 C   0  0  0  0  0  0  0  0  0  0  0  0
   -0.7500    1.2990    0.0000 C   0  0  0  0  0  0  0  0  0  0  0  0
   -1.5000    0.0000    0.0000 C   0  0  0  0  0  0  0  0  0  0  0  0
   -3.0000    0.0000    0.0000 C   0  0  0  0  0  0  0  0  0  0  0  0
   -3.8817   -1.2135    0.0000 N   0  0  0  0  0  0  0  0  0  0  0  0
   -5.3083   -0.7500    0.0000 N   0  0  0  0  0  0  0  0  0  0  0  0
   -5.3083    0.7500    0.0000 N   0  0  0  0  0  0  0  0  0  0  0  0
   -3.8817    1.2135    0.0000 N   0  0  0  0  0  0  0  0  0  0  0  0
   -3.4182    2.6401    0.0000 C   0  0  0  0  0  0  0  0  0  0  0  0
   -4.2998    3.8536    0.0000 C   0  0  0  0  0  0  0  0  0  0  0  0
   -3.4182    5.0672    0.0000 C   0  0  0  0  0  0  0  0  0  0  0  0
   -1.9916    4.6036    0.0000 C   0  0  0  0  0  0  0  0  0  0  0  0
   -0.7780    5.4853    0.0000 C   0  0  0  0  0  0  0  0  0  0  0  0
    0.6485    5.0218    0.0000 N   0  0  0  0  0  0  0  0  0  0  0  0
    1.5302    6.2353    0.0000 N   0  0  0  0  0  0  0  0  0  0  0  0
    0.6485    7.4488    0.0000 N   0  0  0  0  0  0  0  0  0  0  0  0
   -0.7780    6.9853    0.0000 N   0  0  0  0  0  0  0  0  0  0  0  0
   -1.9916    7.8670    0.0000 C   0  0  0  0  0  0  0  0  0  0  0  0
   -3.3619    7.2569    0.0000 C   0  0  0  0  0  0  0  0  0  0  0  0
   -4.5754    8.1386    0.0000 C   0  0  0  0  0  0  0  0  0  0  0  0
   -4.4186    9.6303    0.0000 C   0  0  0  0  0  0  0  0  0  0  0  0
   -3.0483   10.2405    0.0000 N   0  0  0  0  0  0  0  0  0  0  0  0
   -1.8348    9.3588    0.0000 C   0  0  0  0  0  0  0  0  0  0  0  0
   -0.4645    9.9689    0.0000 C   0  0  0  0  0  0  0  0  0  0  0  0
   -0.3077   11.4607    0.0000 C   0  0  0  0  0  0  0  0  0  0  0  0
    1.0627   12.0708    0.0000 C   0  0  0  0  0  0  0  0  0  0  0  0
    2.2762   11.1891    0.0000 C   0  0  0  0  0  0  0  0  0  0  0  0
    2.1194    9.6973    0.0000 C   0  0  0  0  0  0  0  0  0  0  0  0
    0.7491    9.0872    0.0000 C   0  0  0  0  0  0  0  0  0  0  0  0
   -1.9916    3.1036    0.0000 C   0  0  0  0  0  0  0  0  0  0  0  0
   -0.7780    2.2220    0.0000 O   0  0  0  0  0  0  0  0  0  0  0  0
   -0.7500   -1.2990    0.0000 C   0  0  0  0  0  0  0  0  0  0  0  0
    0.7500   -1.2990    0.0000 C   0  0  0  0  0  0  0  0  0  0  0  0
  1  2  1  0
  2  3  2  0
  3  4  1  0
  4  5  2  0
  5  6  1  0
  6  7  2  0
  7  8  1  0
  8  9  2  0
  9 10  1  0
 10 11  1  0
 11 12  2  0
 12 13  1  0
 13 14  2  0
 14 15  1  0
 15 16  2  0
 16 17  1  0
 17 18  2  0
 18 19  1  0
 19 20  1  0
 20 21  2  0
 21 22  1  0
 22 23  2  0
 23 24  1  0
 24 25  2  0
 25 26  1  0
 26 27  2  0
 27 28  1  0
 28 29  2  0
 29 30  1  0
 30 31  2  0
 14 32  1  0
 32 33  2  0
  5 34  1  0
 34 35  2  0
 35  2  1  0
 10  6  1  0
 32 11  1  0
 19 15  1  0
 25 20  1  0
 31 26  1  0
M  END
>  <Title>  (1147) 
idABSCgen8

$$$$

     RDKit          2D

 52 59  0  0  0  0  0  0  0  0999 V2000
   10.2984   -4.4830    0.0000 C   0  0  0  0  0  0  0  0  0  0  0  0
    9.7504   -3.0867    0.0000 C   0  0  0  0  0  0  0  0  0  0  0  0
    8.2672   -2.8631    0.0000 C   0  0  0  0  0  0  0  0  0  0  0  0
    7.7191   -1.4668    0.0000 C   0  0  0  0  0  0  0  0  0  0  0  0
    8.6544   -0.2941    0.0000 C   0  0  0  0  0  0  0  0  0  0  0  0
    8.1064    1.1022    0.0000 C   0  0  0  0  0  0  0  0  0  0  0  0
    8.9139    2.3663    0.0000 N   0  0  0  0  0  0  0  0  0  0  0  0
    7.9612    3.5249    0.0000 N   0  0  0  0  0  0  0  0  0  0  0  0
    6.5649    2.9769    0.0000 N   0  0  0  0  0  0  0  0  0  0  0  0
    6.6546    1.4796    0.0000 N   0  0  0  0  0  0  0  0  0  0  0  0
    5.4960    0.5269    0.0000 C   0  0  0  0  0  0  0  0  0  0  0  0
    5.5857   -0.9704    0.0000 C   0  0  0  0  0  0  0  0  0  0  0  0
    4.1894   -1.5184    0.0000 C   0  0  0  0  0  0  0  0  0  0  0  0
    3.2367   -0.3598    0.0000 N   0  0  0  0  0  0  0  0  0  0  0  0
    4.0442    0.9043    0.0000 N   0  0  0  0  0  0  0  0  0  0  0  0
    3.4962    2.3006    0.0000 C   0  0  0  0  0  0  0  0  0  0  0  0
    4.4315    3.4734    0.0000 C   0  0  0  0  0  0  0  0  0  0  0  0
    3.8835    4.8697    0.0000 C   0  0  0  0  0  0  0  0  0  0  0  0
    2.4002    5.0933    0.0000 C   0  0  0  0  0  0  0  0  0  0  0  0
    1.8522    6.4896    0.0000 C   0  0  0  0  0  0  0  0  0  0  0  0
    0.4004    6.8669    0.0000 N   0  0  0  0  0  0  0  0  0  0  0  0
    0.3107    8.3643    0.0000 N   0  0  0  0  0  0  0  0  0  0  0  0
    1.7070    8.9123    0.0000 N   0  0  0  0  0  0  0  0  0  0  0  0
    2.6597    7.7537    0.0000 N   0  0  0  0  0  0  0  0  0  0  0  0
    4.1570    7.8434    0.0000 C   0  0  0  0  0  0  0  0  0  0  0  0
    4.9834    6.5915    0.0000 C   0  0  0  0  0  0  0  0  0  0  0  0
    6.4807    6.6812    0.0000 C   0  0  0  0  0  0  0  0  0  0  0  0
    7.1517    8.0228    0.0000 C   0  0  0  0  0  0  0  0  0  0  0  0
    6.3253    9.2746    0.0000 C   0  0  0  0  0  0  0  0  0  0  0  0
    4.8280    9.1849    0.0000 C   0  0  0  0  0  0  0  0  0  0  0  0
    1.4650    3.9205    0.0000 C   0  0  0  0  0  0  0  0  0  0  0  0
    2.0130    2.5242    0.0000 C   0  0  0  0  0  0  0  0  0  0  0  0
    1.0777    1.3515    0.0000 N   0  0  0  0  0  0  0  0  0  0  0  0
    1.7286    0.0000    0.0000 C   0  0  0  0  0  0  0  0  0  0  0  0
    1.0777   -1.3515    0.0000 C   0  0  0  0  0  0  0  0  0  0  0  0
   -0.3846   -1.6852    0.0000 C   0  0  0  0  0  0  0  0  0  0  0  0
   -1.5574   -0.7500    0.0000 C   0  0  0  0  0  0  0  0  0  0  0  0
   -1.5574    0.7500    0.0000 C   0  0  0  0  0  0  0  0  0  0  0  0
   -0.3846    1.6852    0.0000 C   0  0  0  0  0  0  0  0  0  0  0  0
   -0.7184    3.1476    0.0000 C   0  0  0  0  0  0  0  0  0  0  0  0
    0.3812    4.1679    0.0000 C   0  0  0  0  0  0  0  0  0  0  0  0
    0.0474    5.6303    0.0000 C   0  0  0  0  0  0  0  0  0  0  0  0
   -1.3860    6.0724    0.0000 C   0  0  0  0  0  0  0  0  0  0  0  0
   -1.7198    7.5348    0.0000 C   0  0  0  0  0  0  0  0  0  0  0  0
   -3.1531    7.9769    0.0000 O   0  0  0  0  0  0  0  0  0  0  0  0
   -0.6202    8.5551    0.0000 N   0  0  0  0  0  0  0  0  0  0  0  0
   -0.9540   10.0175    0.0000 O   0  0  0  0  0  0  0  0  0  0  0  0
   -2.4856    5.0522    0.0000 C   0  0  0  0  0  0  0  0  0  0  0  0
   -2.1518    3.5898    0.0000 C   0  0  0  0  0  0  0  0  0  0  0  0
   10.1376   -0.5176    0.0000 C   0  0  0  0  0  0  0  0  0  0  0  0
   11.0729    0.6551    0.0000 O   0  0  0  0  0  0  0  0  0  0  0  0
   10.6856   -1.9139    0.0000 N   0  0  0  0  0  0  0  0  0  0  0  0
  1  2  1  0
  2  3  2  0
  3  4  1  0
  4  5  2  0
  5  6  1  0
  6  7  2  0
  7  8  1  0
  8  9  2  0
  9 10  1  0
 10 11  1  0
 11 12  2  0
 12 13  1  0
 13 14  2  0
 14 15  1  0
 15 16  1  0
 16 17  2  0
 17 18  1  0
 18 19  2  0
 19 20  1  0
 20 21  2  0
 21 22  1  0
 22 23  2  0
 23 24  1  0
 24 25  1  0
 25 26  2  0
 26 27  1  0
 27 28  2  0
 28 29  1  0
 29 30  2  0
 19 31  1  0
 31 32  2  0
 32 33  1  0
 33 34  1  0
 34 35  2  0
 35 36  1  0
 36 37  2  0
 37 38  1  0
 38 39  2  0
 39 40  1  0
 40 41  2  0
 41 42  1  0
 42 43  2  0
 43 44  1  0
 44 45  2  0
 44 46  1  0
 46 47  1  0
 43 48  1  0
 48 49  1  0
  5 50  1  0
 50 51  2  0
 50 52  1  0
 52  2  1  0
 10  6  1  0
 15 11  1  0
 32 16  1  0
 39 33  1  0
 49 40  1  0
 24 20  1  0
 30 25  1  0
M  END
>  <Title>  (1148) 
idABSDgen8

$$$$

     RDKit          2D

 20 21  0  0  0  0  0  0  0  0999 V2000
   -7.2886    3.1419    0.0000 C   0  0  0  0  0  0  0  0  0  0  0  0
   -6.0751    2.2602    0.0000 O   0  0  0  0  0  0  0  0  0  0  0  0
   -4.7048    2.8703    0.0000 C   0  0  0  0  0  0  0  0  0  0  0  0
   -5.0167    4.3375    0.0000 C   0  0  0  0  0  0  0  0  0  0  0  0
   -4.7048    5.8048    0.0000 C   0  0  0  0  0  0  0  0  0  0  0  0
   -3.8231    7.0183    0.0000 C   0  0  0  0  0  0  0  0  0  0  0  0
   -2.5241    7.7683    0.0000 C   0  0  0  0  0  0  0  0  0  0  0  0
   -1.0323    7.9251    0.0000 C   0  0  0  0  0  0  0  0  0  0  0  0
    0.3943    7.4616    0.0000 C   0  0  0  0  0  0  0  0  0  0  0  0
    1.5090    6.4579    0.0000 C   0  0  0  0  0  0  0  0  0  0  0  0
    2.1191    5.0875    0.0000 C   0  0  0  0  0  0  0  0  0  0  0  0
    2.1191    3.5875    0.0000 C   0  0  0  0  0  0  0  0  0  0  0  0
    1.5090    2.2172    0.0000 C   0  0  0  0  0  0  0  0  0  0  0  0
    0.3943    1.2135    0.0000 C   0  0  0  0  0  0  0  0  0  0  0  0
    1.2760    0.0000    0.0000 C   0  0  0  0  0  0  0  0  0  0  0  0
    0.3943   -1.2135    0.0000 C   0  0  0  0  0  0  0  0  0  0  0  0
   -1.0323   -0.7500    0.0000 C   0  0  0  0  0  0  0  0  0  0  0  0
   -1.0323    0.7500    0.0000 C   0  0  0  0  0  0  0  0  0  0  0  0
   -2.5241    0.9068    0.0000 C   0  0  0  0  0  0  0  0  0  0  0  0
   -3.8231    1.6568    0.0000 C   0  0  0  0  0  0  0  0  0  0  0  0
  1  2  1  0
  2  3  1  0
  3  4  2  0
  4  5  1  0
  5  6  2  0
  6  7  1  0
  7  8  2  0
  8  9  1  0
  9 10  2  0
 10 11  1  0
 11 12  2  0
 12 13  1  0
 13 14  2  0
 14 15  1  0
 15 16  2  0
 16 17  1  0
 17 18  2  0
 18 19  1  0
 19 20  2  0
 20  3  1  0
 18 14  1  0
M  END
>  <Title>  (1149) 
idABSEgen8

$$$$

     RDKit          2D

 23 23  0  0  0  0  0  0  0  0999 V2000
    7.0443   -1.2990    0.0000 C   0  0  0  0  0  0  0  0  0  0  0  0
    6.2943    0.0000    0.0000 O   0  0  0  0  0  0  0  0  0  0  0  0
    4.7943    0.0000    0.0000 C   0  0  0  0  0  0  0  0  0  0  0  0
    4.5597   -1.4815    0.0000 C   0  0  0  0  0  0  0  0  0  0  0  0
    3.8787   -2.8180    0.0000 C   0  0  0  0  0  0  0  0  0  0  0  0
    2.8180   -3.8787    0.0000 C   0  0  0  0  0  0  0  0  0  0  0  0
    1.4815   -4.5597    0.0000 C   0  0  0  0  0  0  0  0  0  0  0  0
   -0.0000   -4.7943    0.0000 C   0  0  0  0  0  0  0  0  0  0  0  0
   -0.0000   -6.2943    0.0000 F   0  0  0  0  0  0  0  0  0  0  0  0
   -1.4815   -4.5597    0.0000 C   0  0  0  0  0  0  0  0  0  0  0  0
   -2.8180   -3.8787    0.0000 C   0  0  0  0  0  0  0  0  0  0  0  0
   -3.8787   -2.8180    0.0000 C   0  0  0  0  0  0  0  0  0  0  0  0
   -4.5597   -1.4815    0.0000 C   0  0  0  0  0  0  0  0  0  0  0  0
   -4.7943    0.0000    0.0000 C   0  0  0  0  0  0  0  0  0  0  0  0
   -4.5597    1.4815    0.0000 C   0  0  0  0  0  0  0  0  0  0  0  0
   -3.8787    2.8180    0.0000 C   0  0  0  0  0  0  0  0  0  0  0  0
   -2.8180    3.8787    0.0000 C   0  0  0  0  0  0  0  0  0  0  0  0
   -1.4815    4.5597    0.0000 C   0  0  0  0  0  0  0  0  0  0  0  0
    0.0000    4.7943    0.0000 C   0  0  0  0  0  0  0  0  0  0  0  0
    1.4815    4.5597    0.0000 C   0  0  0  0  0  0  0  0  0  0  0  0
    2.8180    3.8787    0.0000 C   0  0  0  0  0  0  0  0  0  0  0  0
    3.8787    2.8180    0.0000 C   0  0  0  0  0  0  0  0  0  0  0  0
    4.5597    1.4815    0.0000 C   0  0  0  0  0  0  0  0  0  0  0  0
  1  2  1  0
  2  3  1  0
  3  4  2  0
  4  5  1  0
  5  6  2  0
  6  7  1  0
  7  8  2  0
  8  9  1  0
  8 10  1  0
 10 11  2  0
 11 12  1  0
 12 13  2  0
 13 14  1  0
 14 15  2  0
 15 16  1  0
 16 17  2  0
 17 18  1  0
 18 19  2  0
 19 20  1  0
 20 21  2  0
 21 22  1  0
 22 23  2  0
 23  3  1  0
M  END
>  <Title>  (1150) 
idABSFgen8

$$$$

     RDKit          2D

 21 23  0  0  0  0  0  0  0  0999 V2000
    3.2286   -0.0000    0.0000 C   0  0  0  0  0  0  0  0  0  0  0  0
    1.7286    0.0000    0.0000 C   0  0  0  0  0  0  0  0  0  0  0  0
    1.0777    1.3515    0.0000 N   0  0  0  0  0  0  0  0  0  0  0  0
   -0.3846    1.6852    0.0000 C   0  0  0  0  0  0  0  0  0  0  0  0
   -1.5574    0.7500    0.0000 C   0  0  0  0  0  0  0  0  0  0  0  0
   -1.5574   -0.7500    0.0000 C   0  0  0  0  0  0  0  0  0  0  0  0
   -2.9088   -1.4008    0.0000 N   0  0  0  0  0  0  0  0  0  0  0  0
   -3.1767   -2.8767    0.0000 N   0  0  0  0  0  0  0  0  0  0  0  0
   -4.6631   -3.0781    0.0000 N   0  0  0  0  0  0  0  0  0  0  0  0
   -5.3139   -1.7266    0.0000 N   0  0  0  0  0  0  0  0  0  0  0  0
   -4.2297   -0.6900    0.0000 C   0  0  0  0  0  0  0  0  0  0  0  0
   -4.4311    0.7964    0.0000 C   0  0  0  0  0  0  0  0  0  0  0  0
   -3.2445    1.7140    0.0000 C   0  0  0  0  0  0  0  0  0  0  0  0
   -3.4458    3.2004    0.0000 C   0  0  0  0  0  0  0  0  0  0  0  0
   -4.8338    3.7693    0.0000 C   0  0  0  0  0  0  0  0  0  0  0  0
   -5.0351    5.2557    0.0000 C   0  0  0  0  0  0  0  0  0  0  0  0
   -6.0204    2.8517    0.0000 C   0  0  0  0  0  0  0  0  0  0  0  0
   -5.8190    1.3652    0.0000 C   0  0  0  0  0  0  0  0  0  0  0  0
   -0.3846   -1.6852    0.0000 N   0  0  0  0  0  0  0  0  0  0  0  0
    1.0777   -1.3515    0.0000 C   0  0  0  0  0  0  0  0  0  0  0  0
    2.0130   -2.5242    0.0000 O   0  0  0  0  0  0  0  0  0  0  0  0
  1  2  1  0
  2  3  2  0
  3  4  1  0
  4  5  1  0
  5  6  1  0
  6  7  1  0
  7  8  1  0
  8  9  2  0
  9 10  1  0
 10 11  2  0
 11 12  1  0
 12 13  2  0
 13 14  1  0
 14 15  2  0
 15 16  1  0
 15 17  1  0
 17 18  2  0
  6 19  1  0
 19 20  1  0
 20 21  2  0
 20  2  1  0
 11  7  1  0
 18 12  1  0
M  END
>  <Title>  (1151) 
idABSGgen8

$$$$

     RDKit          2D

 33 33  0  0  0  0  0  0  0  0999 V2000
    9.1517    0.0000    0.0000 O   0  0  0  0  0  0  0  0  0  0  0  0
    7.6517    0.0000    0.0000 C   0  0  0  0  0  0  0  0  0  0  0  0
    7.5047   -1.4928    0.0000 C   0  0  0  0  0  0  0  0  0  0  0  0
    7.0693   -2.9282    0.0000 C   0  0  0  0  0  0  0  0  0  0  0  0
    6.3622   -4.2511    0.0000 C   0  0  0  0  0  0  0  0  0  0  0  0
    5.4106   -5.4106    0.0000 C   0  0  0  0  0  0  0  0  0  0  0  0
    4.2511   -6.3622    0.0000 C   0  0  0  0  0  0  0  0  0  0  0  0
    2.9282   -7.0693    0.0000 C   0  0  0  0  0  0  0  0  0  0  0  0
    1.4928   -7.5047    0.0000 C   0  0  0  0  0  0  0  0  0  0  0  0
   -0.0000   -7.6517    0.0000 C   0  0  0  0  0  0  0  0  0  0  0  0
   -1.4928   -7.5047    0.0000 C   0  0  0  0  0  0  0  0  0  0  0  0
   -2.9282   -7.0693    0.0000 C   0  0  0  0  0  0  0  0  0  0  0  0
   -4.2511   -6.3622    0.0000 C   0  0  0  0  0  0  0  0  0  0  0  0
   -5.4106   -5.4106    0.0000 C   0  0  0  0  0  0  0  0  0  0  0  0
   -6.3622   -4.2511    0.0000 C   0  0  0  0  0  0  0  0  0  0  0  0
   -7.0693   -2.9282    0.0000 C   0  0  0  0  0  0  0  0  0  0  0  0
   -7.5047   -1.4928    0.0000 C   0  0  0  0  0  0  0  0  0  0  0  0
   -7.6517    0.0000    0.0000 C   0  0  0  0  0  0  0  0  0  0  0  0
   -7.5047    1.4928    0.0000 C   0  0  0  0  0  0  0  0  0  0  0  0
   -7.0693    2.9282    0.0000 C   0  0  0  0  0  0  0  0  0  0  0  0
   -6.3622    4.2511    0.0000 C   0  0  0  0  0  0  0  0  0  0  0  0
   -5.4106    5.4106    0.0000 C   0  0  0  0  0  0  0  0  0  0  0  0
   -4.2511    6.3622    0.0000 C   0  0  0  0  0  0  0  0  0  0  0  0
   -2.9282    7.0693    0.0000 C   0  0  0  0  0  0  0  0  0  0  0  0
   -1.4928    7.5047    0.0000 C   0  0  0  0  0  0  0  0  0  0  0  0
    0.0000    7.6517    0.0000 C   0  0  0  0  0  0  0  0  0  0  0  0
    1.4928    7.5047    0.0000 C   0  0  0  0  0  0  0  0  0  0  0  0
    2.9282    7.0693    0.0000 C   0  0  0  0  0  0  0  0  0  0  0  0
    4.2511    6.3622    0.0000 C   0  0  0  0  0  0  0  0  0  0  0  0
    5.4106    5.4106    0.0000 C   0  0  0  0  0  0  0  0  0  0  0  0
    6.3622    4.2511    0.0000 C   0  0  0  0  0  0  0  0  0  0  0  0
    7.0693    2.9282    0.0000 C   0  0  0  0  0  0  0  0  0  0  0  0
    7.5047    1.4928    0.0000 C   0  0  0  0  0  0  0  0  0  0  0  0
  1  2  1  0
  2  3  2  0
  3  4  1  0
  4  5  2  0
  5  6  1  0
  6  7  2  0
  7  8  1  0
  8  9  2  0
  9 10  1  0
 10 11  2  0
 11 12  1  0
 12 13  2  0
 13 14  1  0
 14 15  2  0
 15 16  1  0
 16 17  2  0
 17 18  1  0
 18 19  2  0
 19 20  1  0
 20 21  2  0
 21 22  1  0
 22 23  2  0
 23 24  1  0
 24 25  2  0
 25 26  1  0
 26 27  2  0
 27 28  1  0
 28 29  2  0
 29 30  1  0
 30 31  2  0
 31 32  1  0
 32 33  2  0
 33  2  1  0
M  END
>  <Title>  (1152) 
idABSHgen8

$$$$

     RDKit          2D

 11 11  0  0  0  0  0  0  0  0999 V2000
    4.2098   -1.2990    0.0000 C   0  0  0  0  0  0  0  0  0  0  0  0
    3.4598   -0.0000    0.0000 O   0  0  0  0  0  0  0  0  0  0  0  0
    1.9598    0.0000    0.0000 C   0  0  0  0  0  0  0  0  0  0  0  0
    1.3858   -1.3858    0.0000 C   0  0  0  0  0  0  0  0  0  0  0  0
   -0.0000   -1.9598    0.0000 C   0  0  0  0  0  0  0  0  0  0  0  0
   -1.3858   -1.3858    0.0000 C   0  0  0  0  0  0  0  0  0  0  0  0
   -1.9598    0.0000    0.0000 C   0  0  0  0  0  0  0  0  0  0  0  0
   -1.3858    1.3858    0.0000 C   0  0  0  0  0  0  0  0  0  0  0  0
   -2.4465    2.4465    0.0000 N   0  0  0  0  0  0  0  0  0  0  0  0
    0.0000    1.9598    0.0000 N   0  0  0  0  0  0  0  0  0  0  0  0
    1.3858    1.3858    0.0000 C   0  0  0  0  0  0  0  0  0  0  0  0
  1  2  1  0
  2  3  1  0
  3  4  2  0
  4  5  1  0
  5  6  2  0
  6  7  1  0
  7  8  2  0
  8  9  1  0
  8 10  1  0
 10 11  1  0
 11  3  1  0
M  END
>  <Title>  (1153) 
idABSIgen8

$$$$

     RDKit          2D

 19 19  0  0  0  0  0  0  0  0999 V2000
    5.5816    0.0000    0.0000 C   0  0  0  0  0  0  0  0  0  0  0  0
    4.0816    0.0000    0.0000 C   0  0  0  0  0  0  0  0  0  0  0  0
    3.8060    1.4745    0.0000 C   0  0  0  0  0  0  0  0  0  0  0  0
    3.0164    2.7498    0.0000 C   0  0  0  0  0  0  0  0  0  0  0  0
    1.8193    3.6537    0.0000 C   0  0  0  0  0  0  0  0  0  0  0  0
    0.3766    4.0642    0.0000 C   0  0  0  0  0  0  0  0  0  0  0  0
    0.5150    5.5578    0.0000 C   0  0  0  0  0  0  0  0  0  0  0  0
   -1.1170    3.9258    0.0000 C   0  0  0  0  0  0  0  0  0  0  0  0
   -2.4597    3.2572    0.0000 C   0  0  0  0  0  0  0  0  0  0  0  0
   -3.4703    2.1487    0.0000 C   0  0  0  0  0  0  0  0  0  0  0  0
   -4.0121    0.7500    0.0000 C   0  0  0  0  0  0  0  0  0  0  0  0
   -4.0121   -0.7500    0.0000 C   0  0  0  0  0  0  0  0  0  0  0  0
   -3.4703   -2.1487    0.0000 C   0  0  0  0  0  0  0  0  0  0  0  0
   -2.4597   -3.2572    0.0000 C   0  0  0  0  0  0  0  0  0  0  0  0
   -1.1170   -3.9258    0.0000 C   0  0  0  0  0  0  0  0  0  0  0  0
    0.3766   -4.0642    0.0000 C   0  0  0  0  0  0  0  0  0  0  0  0
    1.8193   -3.6537    0.0000 C   0  0  0  0  0  0  0  0  0  0  0  0
    3.0164   -2.7498    0.0000 C   0  0  0  0  0  0  0  0  0  0  0  0
    3.8060   -1.4745    0.0000 C   0  0  0  0  0  0  0  0  0  0  0  0
  1  2  1  0
  2  3  2  0
  3  4  2  0
  4  5  1  0
  5  6  2  0
  6  7  1  0
  6  8  1  0
  8  9  2  0
  9 10  1  0
 10 11  2  0
 11 12  1  0
 12 13  2  0
 13 14  1  0
 14 15  2  0
 15 16  1  0
 16 17  2  0
 17 18  1  0
 18 19  2  0
 19  2  1  0
M  END
>  <Title>  (1154) 
idABSJgen8

$$$$

     RDKit          2D

  7  7  0  0  0  0  0  0  0  0999 V2000
    3.0000    0.0000    0.0000 O   0  0  0  0  0  0  0  0  0  0  0  0
    1.5000    0.0000    0.0000 C   0  0  0  0  0  0  0  0  0  0  0  0
    0.7500   -1.2990    0.0000 C   0  0  0  0  0  0  0  0  0  0  0  0
   -0.7500   -1.2990    0.0000 C   0  0  0  0  0  0  0  0  0  0  0  0
   -1.5000    0.0000    0.0000 C   0  0  0  0  0  0  0  0  0  0  0  0
   -0.7500    1.2990    0.0000 C   0  0  0  0  0  0  0  0  0  0  0  0
    0.7500    1.2990    0.0000 N   0  0  0  0  0  0  0  0  0  0  0  0
  1  2  1  0
  2  3  2  0
  3  4  1  0
  4  5  2  0
  5  6  1  0
  6  7  1  0
  7  2  1  0
M  END
>  <Title>  (1155) 
idABSKgen8

$$$$

     RDKit          2D

 41 45  0  0  0  0  0  0  0  0999 V2000
   -3.1771   -2.3083    0.0000 C   0  0  0  0  0  0  0  0  0  0  0  0
   -1.9635   -1.4266    0.0000 C   0  0  0  0  0  0  0  0  0  0  0  0
   -0.7500   -2.3083    0.0000 C   0  0  0  0  0  0  0  0  0  0  0  0
    0.7500   -2.3083    0.0000 C   0  0  0  0  0  0  0  0  0  0  0  0
    1.9635   -1.4266    0.0000 C   0  0  0  0  0  0  0  0  0  0  0  0
    2.4271    0.0000    0.0000 C   0  0  0  0  0  0  0  0  0  0  0  0
    1.9635    1.4266    0.0000 C   0  0  0  0  0  0  0  0  0  0  0  0
    0.7500    2.3083    0.0000 C   0  0  0  0  0  0  0  0  0  0  0  0
   -0.7500    2.3083    0.0000 C   0  0  0  0  0  0  0  0  0  0  0  0
   -1.2135    3.7348    0.0000 N   0  0  0  0  0  0  0  0  0  0  0  0
   -0.2098    4.8496    0.0000 C   0  0  0  0  0  0  0  0  0  0  0  0
    1.2574    4.5377    0.0000 O   0  0  0  0  0  0  0  0  0  0  0  0
   -0.6734    6.2761    0.0000 C   0  0  0  0  0  0  0  0  0  0  0  0
    0.3303    7.3909    0.0000 C   0  0  0  0  0  0  0  0  0  0  0  0
   -0.1332    8.8175    0.0000 C   0  0  0  0  0  0  0  0  0  0  0  0
   -1.6004    9.1293    0.0000 C   0  0  0  0  0  0  0  0  0  0  0  0
   -2.6041    8.0146    0.0000 C   0  0  0  0  0  0  0  0  0  0  0  0
   -2.1406    6.5880    0.0000 C   0  0  0  0  0  0  0  0  0  0  0  0
   -3.1443    5.4733    0.0000 C   0  0  0  0  0  0  0  0  0  0  0  0
   -4.6115    5.7852    0.0000 C   0  0  0  0  0  0  0  0  0  0  0  0
   -5.6152    4.6705    0.0000 C   0  0  0  0  0  0  0  0  0  0  0  0
   -5.1517    3.2439    0.0000 C   0  0  0  0  0  0  0  0  0  0  0  0
   -6.1554    2.1291    0.0000 C   0  0  0  0  0  0  0  0  0  0  0  0
   -5.6918    0.7026    0.0000 O   0  0  0  0  0  0  0  0  0  0  0  0
   -7.6226    2.4410    0.0000 N   0  0  0  0  0  0  0  0  0  0  0  0
   -8.6263    1.3263    0.0000 C   0  0  0  0  0  0  0  0  0  0  0  0
   -8.3144   -0.1409    0.0000 N   0  0  0  0  0  0  0  0  0  0  0  0
   -9.6134   -0.8909    0.0000 N   0  0  0  0  0  0  0  0  0  0  0  0
  -10.7282    0.1128    0.0000 N   0  0  0  0  0  0  0  0  0  0  0  0
  -10.1181    1.4831    0.0000 N   0  0  0  0  0  0  0  0  0  0  0  0
  -10.8681    2.7821    0.0000 C   0  0  0  0  0  0  0  0  0  0  0  0
  -10.1181    4.0812    0.0000 C   0  0  0  0  0  0  0  0  0  0  0  0
  -10.8681    5.3802    0.0000 C   0  0  0  0  0  0  0  0  0  0  0  0
  -12.3681    5.3802    0.0000 C   0  0  0  0  0  0  0  0  0  0  0  0
  -13.1181    4.0812    0.0000 C   0  0  0  0  0  0  0  0  0  0  0  0
  -12.3681    2.7821    0.0000 C   0  0  0  0  0  0  0  0  0  0  0  0
   -3.6844    2.9320    0.0000 C   0  0  0  0  0  0  0  0  0  0  0  0
   -2.6807    4.0467    0.0000 C   0  0  0  0  0  0  0  0  0  0  0  0
   -1.9635    1.4266    0.0000 C   0  0  0  0  0  0  0  0  0  0  0  0
   -3.1771    2.3083    0.0000 O   0  0  0  0  0  0  0  0  0  0  0  0
   -2.4271    0.0000    0.0000 N   0  0  0  0  0  0  0  0  0  0  0  0
  1  2  1  0
  2  3  2  0
  3  4  1  0
  4  5  2  0
  5  6  2  0
  6  7  2  0
  7  8  1  0
  8  9  2  0
  9 10  1  0
 10 11  1  0
 11 12  2  0
 11 13  1  0
 13 14  1  0
 14 15  1  0
 15 16  1  0
 16 17  1  0
 17 18  1  0
 18 19  1  0
 19 20  2  0
 20 21  1  0
 21 22  2  0
 22 23  1  0
 23 24  2  0
 23 25  1  0
 25 26  1  0
 26 27  2  0
 27 28  1  0
 28 29  2  0
 29 30  1  0
 30 31  1  0
 31 32  2  0
 32 33  1  0
 33 34  2  0
 34 35  1  0
 35 36  2  0
 22 37  1  0
 37 38  2  0
  9 39  1  0
 39 40  2  0
 39 41  1  0
 41  2  1  0
 18 13  1  0
 38 19  1  0
 30 26  1  0
 36 31  1  0
M  END
>  <Title>  (1156) 
idABSLgen8

$$$$

     RDKit          2D

 21 21  0  0  0  0  0  0  0  0999 V2000
    6.2943    0.0000    0.0000 C   0  0  0  0  0  0  0  0  0  0  0  0
    4.7943    0.0000    0.0000 N   0  0  0  0  0  0  0  0  0  0  0  0
    4.5597   -1.4815    0.0000 C   0  0  0  0  0  0  0  0  0  0  0  0
    3.8787   -2.8180    0.0000 C   0  0  0  0  0  0  0  0  0  0  0  0
    2.8180   -3.8787    0.0000 C   0  0  0  0  0  0  0  0  0  0  0  0
    1.4815   -4.5597    0.0000 C   0  0  0  0  0  0  0  0  0  0  0  0
   -0.0000   -4.7943    0.0000 C   0  0  0  0  0  0  0  0  0  0  0  0
   -1.4815   -4.5597    0.0000 C   0  0  0  0  0  0  0  0  0  0  0  0
   -2.8180   -3.8787    0.0000 C   0  0  0  0  0  0  0  0  0  0  0  0
   -3.8787   -2.8180    0.0000 C   0  0  0  0  0  0  0  0  0  0  0  0
   -4.5597   -1.4815    0.0000 C   0  0  0  0  0  0  0  0  0  0  0  0
   -4.7943    0.0000    0.0000 C   0  0  0  0  0  0  0  0  0  0  0  0
   -4.5597    1.4815    0.0000 C   0  0  0  0  0  0  0  0  0  0  0  0
   -3.8787    2.8180    0.0000 C   0  0  0  0  0  0  0  0  0  0  0  0
   -2.8180    3.8787    0.0000 C   0  0  0  0  0  0  0  0  0  0  0  0
   -1.4815    4.5597    0.0000 C   0  0  0  0  0  0  0  0  0  0  0  0
    0.0000    4.7943    0.0000 C   0  0  0  0  0  0  0  0  0  0  0  0
    1.4815    4.5597    0.0000 C   0  0  0  0  0  0  0  0  0  0  0  0
    2.8180    3.8787    0.0000 C   0  0  0  0  0  0  0  0  0  0  0  0
    3.8787    2.8180    0.0000 C   0  0  0  0  0  0  0  0  0  0  0  0
    4.5597    1.4815    0.0000 C   0  0  0  0  0  0  0  0  0  0  0  0
  1  2  1  0
  2  3  1  0
  3  4  1  0
  4  5  1  0
  5  6  1  0
  6  7  1  0
  7  8  1  0
  8  9  1  0
  9 10  1  0
 10 11  1  0
 11 12  1  0
 12 13  1  0
 13 14  1  0
 14 15  1  0
 15 16  1  0
 16 17  1  0
 17 18  1  0
 18 19  1  0
 19 20  1  0
 20 21  1  0
 21  2  1  0
M  END
>  <Title>  (1157) 
idABSMgen8

$$$$

     RDKit          2D

 22 24  0  0  0  0  0  0  0  0999 V2000
    3.0000    0.0000    0.0000 C   0  0  0  0  0  0  0  0  0  0  0  0
    1.5000    0.0000    0.0000 C   0  0  0  0  0  0  0  0  0  0  0  0
    0.7500   -1.2990    0.0000 C   0  0  0  0  0  0  0  0  0  0  0  0
   -0.7500   -1.2990    0.0000 C   0  0  0  0  0  0  0  0  0  0  0  0
   -1.5000    0.0000    0.0000 C   0  0  0  0  0  0  0  0  0  0  0  0
   -3.0000    0.0000    0.0000 C   0  0  0  0  0  0  0  0  0  0  0  0
   -3.8817   -1.2135    0.0000 N   0  0  0  0  0  0  0  0  0  0  0  0
   -5.3083   -0.7500    0.0000 N   0  0  0  0  0  0  0  0  0  0  0  0
   -5.3083    0.7500    0.0000 N   0  0  0  0  0  0  0  0  0  0  0  0
   -3.8817    1.2135    0.0000 N   0  0  0  0  0  0  0  0  0  0  0  0
   -3.4182    2.6401    0.0000 C   0  0  0  0  0  0  0  0  0  0  0  0
   -1.9509    2.9520    0.0000 N   0  0  0  0  0  0  0  0  0  0  0  0
   -1.4874    4.3786    0.0000 C   0  0  0  0  0  0  0  0  0  0  0  0
   -0.0202    4.6904    0.0000 O   0  0  0  0  0  0  0  0  0  0  0  0
   -2.4911    5.4933    0.0000 N   0  0  0  0  0  0  0  0  0  0  0  0
   -3.9583    5.1814    0.0000 C   0  0  0  0  0  0  0  0  0  0  0  0
   -4.9620    6.2961    0.0000 O   0  0  0  0  0  0  0  0  0  0  0  0
   -4.4218    3.7548    0.0000 C   0  0  0  0  0  0  0  0  0  0  0  0
   -5.8891    3.4430    0.0000 O   0  0  0  0  0  0  0  0  0  0  0  0
   -0.7500    1.2990    0.0000 N   0  0  0  0  0  0  0  0  0  0  0  0
    0.7500    1.2990    0.0000 C   0  0  0  0  0  0  0  0  0  0  0  0
    1.5000    2.5981    0.0000 O   0  0  0  0  0  0  0  0  0  0  0  0
  1  2  1  0
  2  3  2  0
  3  4  1  0
  4  5  2  0
  5  6  1  0
  6  7  2  0
  7  8  1  0
  8  9  2  0
  9 10  1  0
 10 11  1  0
 11 12  1  0
 12 13  1  0
 13 14  2  0
 13 15  1  0
 15 16  1  0
 16 17  2  0
 16 18  1  0
 18 19  2  0
  5 20  1  0
 20 21  1  0
 21 22  2  0
 21  2  1  0
 10  6  1  0
 18 11  1  0
M  END
>  <Title>  (1158) 
idABSNgen8

$$$$

     RDKit          2D

 28 31  0  0  0  0  0  0  0  0999 V2000
    3.0000    0.0000    0.0000 C   0  0  0  0  0  0  0  0  0  0  0  0
    1.5000    0.0000    0.0000 C   0  0  0  0  0  0  0  0  0  0  0  0
    0.7500    1.2990    0.0000 C   0  0  0  0  0  0  0  0  0  0  0  0
   -0.7500    1.2990    0.0000 C   0  0  0  0  0  0  0  0  0  0  0  0
   -1.5000    0.0000    0.0000 C   0  0  0  0  0  0  0  0  0  0  0  0
   -3.0000    0.0000    0.0000 C   0  0  0  0  0  0  0  0  0  0  0  0
   -3.7500   -1.2990    0.0000 O   0  0  0  0  0  0  0  0  0  0  0  0
   -3.7500    1.2990    0.0000 N   0  0  0  0  0  0  0  0  0  0  0  0
   -5.2500    1.2990    0.0000 C   0  0  0  0  0  0  0  0  0  0  0  0
   -6.1317    0.0855    0.0000 N   0  0  0  0  0  0  0  0  0  0  0  0
   -7.5583    0.5490    0.0000 N   0  0  0  0  0  0  0  0  0  0  0  0
   -7.5583    2.0490    0.0000 N   0  0  0  0  0  0  0  0  0  0  0  0
   -6.1317    2.5126    0.0000 N   0  0  0  0  0  0  0  0  0  0  0  0
   -5.6682    3.9391    0.0000 C   0  0  0  0  0  0  0  0  0  0  0  0
   -4.2416    4.4027    0.0000 N   0  0  0  0  0  0  0  0  0  0  0  0
   -4.2416    5.9027    0.0000 N   0  0  0  0  0  0  0  0  0  0  0  0
   -5.6682    6.3662    0.0000 N   0  0  0  0  0  0  0  0  0  0  0  0
   -6.5498    5.1527    0.0000 N   0  0  0  0  0  0  0  0  0  0  0  0
   -8.0498    5.1527    0.0000 C   0  0  0  0  0  0  0  0  0  0  0  0
   -8.7998    3.8536    0.0000 C   0  0  0  0  0  0  0  0  0  0  0  0
  -10.2998    3.8536    0.0000 C   0  0  0  0  0  0  0  0  0  0  0  0
  -11.0498    5.1527    0.0000 C   0  0  0  0  0  0  0  0  0  0  0  0
  -12.5498    5.1527    0.0000 C   0  0  0  0  0  0  0  0  0  0  0  0
  -10.2998    6.4517    0.0000 C   0  0  0  0  0  0  0  0  0  0  0  0
  -11.0498    7.7508    0.0000 O   0  0  0  0  0  0  0  0  0  0  0  0
   -8.7998    6.4517    0.0000 N   0  0  0  0  0  0  0  0  0  0  0  0
   -0.7500   -1.2990    0.0000 N   0  0  0  0  0  0  0  0  0  0  0  0
    0.7500   -1.2990    0.0000 N   0  0  0  0  0  0  0  0  0  0  0  0
  1  2  1  0
  2  3  2  0
  3  4  1  0
  4  5  2  0
  5  6  1  0
  6  7  2  0
  6  8  1  0
  8  9  1  0
  9 10  2  0
 10 11  1  0
 11 12  2  0
 12 13  1  0
 13 14  1  0
 14 15  2  0
 15 16  1  0
 16 17  2  0
 17 18  1  0
 18 19  1  0
 19 20  2  0
 20 21  1  0
 21 22  2  0
 22 23  1  0
 22 24  1  0
 24 25  2  0
 24 26  1  0
  5 27  1  0
 27 28  2  0
 28  2  1  0
 13  9  1  0
 18 14  1  0
 26 19  1  0
M  END
>  <Title>  (1159) 
idABSOgen8

$$$$

     RDKit          2D

  8  8  0  0  0  0  0  0  0  0999 V2000
    3.0000    0.0000    0.0000 C   0  0  0  0  0  0  0  0  0  0  0  0
    1.5000    0.0000    0.0000 C   0  0  0  0  0  0  0  0  0  0  0  0
    0.7500   -1.2990    0.0000 C   0  0  0  0  0  0  0  0  0  0  0  0
   -0.7500   -1.2990    0.0000 C   0  0  0  0  0  0  0  0  0  0  0  0
   -1.5000    0.0000    0.0000 C   0  0  0  0  0  0  0  0  0  0  0  0
   -0.7500    1.2990    0.0000 C   0  0  0  0  0  0  0  0  0  0  0  0
    0.7500    1.2990    0.0000 C   0  0  0  0  0  0  0  0  0  0  0  0
    1.5000    2.5981    0.0000 N   0  0  0  0  0  0  0  0  0  0  0  0
  1  2  1  0
  2  3  2  0
  3  4  1  0
  4  5  2  0
  5  6  1  0
  6  7  2  0
  7  8  1  0
  7  2  1  0
M  END
>  <Title>  (1160) 
idABSPgen8

$$$$

     RDKit          2D

 36 40  0  0  0  0  0  0  0  0999 V2000
    3.4598   -0.0000    0.0000 C   0  0  0  0  0  0  0  0  0  0  0  0
    1.9598    0.0000    0.0000 C   0  0  0  0  0  0  0  0  0  0  0  0
    1.3858   -1.3858    0.0000 C   0  0  0  0  0  0  0  0  0  0  0  0
   -0.0000   -1.9598    0.0000 C   0  0  0  0  0  0  0  0  0  0  0  0
   -1.3858   -1.3858    0.0000 C   0  0  0  0  0  0  0  0  0  0  0  0
   -1.9598    0.0000    0.0000 C   0  0  0  0  0  0  0  0  0  0  0  0
   -1.3858    1.3858    0.0000 C   0  0  0  0  0  0  0  0  0  0  0  0
   -2.4465    2.4465    0.0000 N   0  0  0  0  0  0  0  0  0  0  0  0
   -2.0583    3.8954    0.0000 N   0  0  0  0  0  0  0  0  0  0  0  0
   -3.1189    4.9560    0.0000 N   0  0  0  0  0  0  0  0  0  0  0  0
   -4.5678    4.5678    0.0000 N   0  0  0  0  0  0  0  0  0  0  0  0
   -4.9560    3.1189    0.0000 N   0  0  0  0  0  0  0  0  0  0  0  0
   -3.8954    2.0583    0.0000 N   0  0  0  0  0  0  0  0  0  0  0  0
   -4.2836    0.6094    0.0000 C   0  0  0  0  0  0  0  0  0  0  0  0
   -3.3396   -0.5564    0.0000 C   0  0  0  0  0  0  0  0  0  0  0  0
   -4.1566   -1.8144    0.0000 C   0  0  0  0  0  0  0  0  0  0  0  0
   -5.6055   -1.4261    0.0000 C   0  0  0  0  0  0  0  0  0  0  0  0
   -6.7712   -2.3701    0.0000 C   0  0  0  0  0  0  0  0  0  0  0  0
   -6.5365   -3.8516    0.0000 O   0  0  0  0  0  0  0  0  0  0  0  0
   -8.1716   -1.8326    0.0000 N   0  0  0  0  0  0  0  0  0  0  0  0
   -9.3373   -2.7765    0.0000 C   0  0  0  0  0  0  0  0  0  0  0  0
   -9.2588   -4.2745    0.0000 N   0  0  0  0  0  0  0  0  0  0  0  0
  -10.6591   -4.8120    0.0000 N   0  0  0  0  0  0  0  0  0  0  0  0
  -11.6031   -3.6463    0.0000 N   0  0  0  0  0  0  0  0  0  0  0  0
  -10.7862   -2.3883    0.0000 N   0  0  0  0  0  0  0  0  0  0  0  0
  -11.3237   -0.9879    0.0000 C   0  0  0  0  0  0  0  0  0  0  0  0
  -10.3797    0.1778    0.0000 C   0  0  0  0  0  0  0  0  0  0  0  0
  -10.9173    1.5781    0.0000 C   0  0  0  0  0  0  0  0  0  0  0  0
  -12.3988    1.8128    0.0000 C   0  0  0  0  0  0  0  0  0  0  0  0
  -13.3428    0.6471    0.0000 C   0  0  0  0  0  0  0  0  0  0  0  0
  -12.8052   -0.7533    0.0000 C   0  0  0  0  0  0  0  0  0  0  0  0
   -5.6840    0.0718    0.0000 C   0  0  0  0  0  0  0  0  0  0  0  0
   -6.9420    0.8888    0.0000 O   0  0  0  0  0  0  0  0  0  0  0  0
    0.0000    1.9598    0.0000 N   0  0  0  0  0  0  0  0  0  0  0  0
    1.3858    1.3858    0.0000 C   0  0  0  0  0  0  0  0  0  0  0  0
    2.4465    2.4465    0.0000 O   0  0  0  0  0  0  0  0  0  0  0  0
  1  2  1  0
  2  3  2  0
  3  4  1  0
  4  5  2  0
  5  6  1  0
  6  7  2  0
  7  8  1  0
  8  9  1  0
  9 10  2  0
 10 11  1  0
 11 12  2  0
 12 13  1  0
 13 14  1  0
 14 15  2  0
 15 16  1  0
 16 17  2  0
 17 18  1  0
 18 19  2  0
 18 20  1  0
 20 21  1  0
 21 22  2  0
 22 23  1  0
 23 24  2  0
 24 25  1  0
 25 26  1  0
 26 27  2  0
 27 28  1  0
 28 29  2  0
 29 30  1  0
 30 31  2  0
 17 32  1  0
 32 33  2  0
  7 34  1  0
 34 35  1  0
 35 36  2  0
 35  2  1  0
 13  8  1  0
 32 14  1  0
 25 21  1  0
 31 26  1  0
M  END
>  <Title>  (1161) 
idABSQgen8

$$$$

     RDKit          2D

 49 55  0  0  0  0  0  0  0  0999 V2000
    0.8311   10.2038    0.0000 C   0  0  0  0  0  0  0  0  0  0  0  0
   -0.5392    9.5937    0.0000 C   0  0  0  0  0  0  0  0  0  0  0  0
   -1.7527   10.4753    0.0000 C   0  0  0  0  0  0  0  0  0  0  0  0
   -3.1230    9.8652    0.0000 C   0  0  0  0  0  0  0  0  0  0  0  0
   -3.2798    8.3735    0.0000 C   0  0  0  0  0  0  0  0  0  0  0  0
   -4.6502    7.7634    0.0000 C   0  0  0  0  0  0  0  0  0  0  0  0
   -5.9492    8.5134    0.0000 N   0  0  0  0  0  0  0  0  0  0  0  0
   -7.0639    7.5097    0.0000 N   0  0  0  0  0  0  0  0  0  0  0  0
   -6.4538    6.1393    0.0000 N   0  0  0  0  0  0  0  0  0  0  0  0
   -4.9620    6.2961    0.0000 N   0  0  0  0  0  0  0  0  0  0  0  0
   -3.9583    5.1814    0.0000 C   0  0  0  0  0  0  0  0  0  0  0  0
   -2.4911    5.4933    0.0000 C   0  0  0  0  0  0  0  0  0  0  0  0
   -1.4874    4.3786    0.0000 C   0  0  0  0  0  0  0  0  0  0  0  0
   -1.9509    2.9520    0.0000 C   0  0  0  0  0  0  0  0  0  0  0  0
   -3.4182    2.6401    0.0000 C   0  0  0  0  0  0  0  0  0  0  0  0
   -4.4218    3.7548    0.0000 C   0  0  0  0  0  0  0  0  0  0  0  0
   -5.8891    3.4430    0.0000 C   0  0  0  0  0  0  0  0  0  0  0  0
   -6.8928    4.5577    0.0000 C   0  0  0  0  0  0  0  0  0  0  0  0
   -8.3600    4.2458    0.0000 C   0  0  0  0  0  0  0  0  0  0  0  0
   -8.8235    2.8192    0.0000 C   0  0  0  0  0  0  0  0  0  0  0  0
  -10.2907    2.5074    0.0000 C   0  0  0  0  0  0  0  0  0  0  0  0
  -10.7543    1.0808    0.0000 O   0  0  0  0  0  0  0  0  0  0  0  0
  -11.2944    3.6221    0.0000 N   0  0  0  0  0  0  0  0  0  0  0  0
  -12.7617    3.3102    0.0000 C   0  0  0  0  0  0  0  0  0  0  0  0
  -13.2252    1.8836    0.0000 O   0  0  0  0  0  0  0  0  0  0  0  0
  -13.7653    4.4249    0.0000 N   0  0  0  0  0  0  0  0  0  0  0  0
  -15.2326    4.1131    0.0000 C   0  0  0  0  0  0  0  0  0  0  0  0
  -15.8427    2.7427    0.0000 N   0  0  0  0  0  0  0  0  0  0  0  0
  -17.3345    2.8995    0.0000 N   0  0  0  0  0  0  0  0  0  0  0  0
  -17.6463    4.3668    0.0000 N   0  0  0  0  0  0  0  0  0  0  0  0
  -16.3473    5.1168    0.0000 N   0  0  0  0  0  0  0  0  0  0  0  0
  -16.1905    6.6085    0.0000 C   0  0  0  0  0  0  0  0  0  0  0  0
  -14.8202    7.2186    0.0000 C   0  0  0  0  0  0  0  0  0  0  0  0
  -14.6634    8.7104    0.0000 C   0  0  0  0  0  0  0  0  0  0  0  0
  -15.8769    9.5921    0.0000 C   0  0  0  0  0  0  0  0  0  0  0  0
  -17.2472    8.9820    0.0000 C   0  0  0  0  0  0  0  0  0  0  0  0
  -17.4040    7.4902    0.0000 C   0  0  0  0  0  0  0  0  0  0  0  0
   -7.8198    1.7045    0.0000 C   0  0  0  0  0  0  0  0  0  0  0  0
   -6.3526    2.0164    0.0000 C   0  0  0  0  0  0  0  0  0  0  0  0
   -5.3489    0.9017    0.0000 C   0  0  0  0  0  0  0  0  0  0  0  0
   -5.8124   -0.5249    0.0000 C   0  0  0  0  0  0  0  0  0  0  0  0
   -4.8087   -1.6396    0.0000 C   0  0  0  0  0  0  0  0  0  0  0  0
   -3.3415   -1.3278    0.0000 C   0  0  0  0  0  0  0  0  0  0  0  0
   -2.3378   -2.4425    0.0000 C   0  0  0  0  0  0  0  0  0  0  0  0
   -2.8780    0.0988    0.0000 C   0  0  0  0  0  0  0  0  0  0  0  0
   -1.4108    0.4107    0.0000 O   0  0  0  0  0  0  0  0  0  0  0  0
   -3.8817    1.2135    0.0000 N   0  0  0  0  0  0  0  0  0  0  0  0
   -2.0663    7.4918    0.0000 N   0  0  0  0  0  0  0  0  0  0  0  0
   -0.6960    8.1019    0.0000 N   0  0  0  0  0  0  0  0  0  0  0  0
  1  2  1  0
  2  3  2  0
  3  4  1  0
  4  5  2  0
  5  6  1  0
  6  7  2  0
  7  8  1  0
  8  9  2  0
  9 10  1  0
 10 11  1  0
 11 12  1  0
 12 13  1  0
 13 14  1  0
 14 15  1  0
 15 16  1  0
 16 17  1  0
 17 18  2  0
 18 19  1  0
 19 20  2  0
 20 21  1  0
 21 22  2  0
 21 23  1  0
 23 24  1  0
 24 25  2  0
 24 26  1  0
 26 27  1  0
 27 28  2  0
 28 29  1  0
 29 30  2  0
 30 31  1  0
 31 32  1  0
 32 33  2  0
 33 34  1  0
 34 35  2  0
 35 36  1  0
 36 37  2  0
 20 38  1  0
 38 39  2  0
 39 40  1  0
 40 41  2  0
 41 42  1  0
 42 43  2  0
 43 44  1  0
 43 45  1  0
 45 46  2  0
 45 47  1  0
  5 48  1  0
 48 49  2  0
 49  2  1  0
 10  6  1  0
 16 11  1  0
 39 17  1  0
 47 40  1  0
 31 27  1  0
 37 32  1  0
M  END
>  <Title>  (1162) 
idABSRgen8

$$$$

     RDKit          2D

 29 32  0  0  0  0  0  0  0  0999 V2000
    3.7500    1.2990    0.0000 C   0  0  0  0  0  0  0  0  0  0  0  0
    3.0000    0.0000    0.0000 O   0  0  0  0  0  0  0  0  0  0  0  0
    1.5000    0.0000    0.0000 C   0  0  0  0  0  0  0  0  0  0  0  0
    0.7500    1.2990    0.0000 C   0  0  0  0  0  0  0  0  0  0  0  0
   -0.7500    1.2990    0.0000 C   0  0  0  0  0  0  0  0  0  0  0  0
   -1.5000    0.0000    0.0000 C   0  0  0  0  0  0  0  0  0  0  0  0
   -3.0000    0.0000    0.0000 N   0  0  0  0  0  0  0  0  0  0  0  0
   -3.8817   -1.2135    0.0000 N   0  0  0  0  0  0  0  0  0  0  0  0
   -5.3083   -0.7500    0.0000 N   0  0  0  0  0  0  0  0  0  0  0  0
   -5.3083    0.7500    0.0000 N   0  0  0  0  0  0  0  0  0  0  0  0
   -3.8817    1.2135    0.0000 C   0  0  0  0  0  0  0  0  0  0  0  0
   -3.4182    2.6401    0.0000 C   0  0  0  0  0  0  0  0  0  0  0  0
   -1.9509    2.9520    0.0000 C   0  0  0  0  0  0  0  0  0  0  0  0
   -1.4874    4.3786    0.0000 C   0  0  0  0  0  0  0  0  0  0  0  0
   -2.4911    5.4933    0.0000 C   0  0  0  0  0  0  0  0  0  0  0  0
   -2.0276    6.9199    0.0000 C   0  0  0  0  0  0  0  0  0  0  0  0
   -3.0313    8.0346    0.0000 O   0  0  0  0  0  0  0  0  0  0  0  0
   -0.5604    7.2317    0.0000 N   0  0  0  0  0  0  0  0  0  0  0  0
   -0.0968    8.6583    0.0000 C   0  0  0  0  0  0  0  0  0  0  0  0
    1.3704    8.9702    0.0000 C   0  0  0  0  0  0  0  0  0  0  0  0
    1.8339   10.3968    0.0000 C   0  0  0  0  0  0  0  0  0  0  0  0
    0.8302   11.5115    0.0000 C   0  0  0  0  0  0  0  0  0  0  0  0
   -0.6370   11.1996    0.0000 C   0  0  0  0  0  0  0  0  0  0  0  0
   -1.1005    9.7730    0.0000 C   0  0  0  0  0  0  0  0  0  0  0  0
   -3.9583    5.1814    0.0000 C   0  0  0  0  0  0  0  0  0  0  0  0
   -4.4218    3.7548    0.0000 C   0  0  0  0  0  0  0  0  0  0  0  0
   -0.7500   -1.2990    0.0000 C   0  0  0  0  0  0  0  0  0  0  0  0
   -1.5000   -2.5981    0.0000 O   0  0  0  0  0  0  0  0  0  0  0  0
    0.7500   -1.2990    0.0000 N   0  0  0  0  0  0  0  0  0  0  0  0
  1  2  1  0
  2  3  1  0
  3  4  2  0
  4  5  1  0
  5  6  2  0
  6  7  1  0
  7  8  1  0
  8  9  2  0
  9 10  1  0
 10 11  2  0
 11 12  1  0
 12 13  2  0
 13 14  1  0
 14 15  2  0
 15 16  1  0
 16 17  2  0
 16 18  1  0
 18 19  1  0
 19 20  2  0
 20 21  1  0
 21 22  2  0
 22 23  1  0
 23 24  2  0
 15 25  1  0
 25 26  2  0
  6 27  1  0
 27 28  2  0
 27 29  1  0
 29  3  1  0
 11  7  1  0
 26 12  1  0
 24 19  1  0
M  END
>  <Title>  (1163) 
idABSSgen8

$$$$

     RDKit          2D

 20 20  0  0  0  0  0  0  0  0999 V2000
    7.5944   -1.2990    0.0000 C   0  0  0  0  0  0  0  0  0  0  0  0
    6.0944   -1.2990    0.0000 C   0  0  0  0  0  0  0  0  0  0  0  0
    5.3444   -2.5981    0.0000 O   0  0  0  0  0  0  0  0  0  0  0  0
    5.3444    0.0000    0.0000 O   0  0  0  0  0  0  0  0  0  0  0  0
    3.8444    0.0000    0.0000 C   0  0  0  0  0  0  0  0  0  0  0  0
    3.5517   -1.4712    0.0000 C   0  0  0  0  0  0  0  0  0  0  0  0
    2.7184   -2.7184    0.0000 C   0  0  0  0  0  0  0  0  0  0  0  0
    1.4712   -3.5517    0.0000 C   0  0  0  0  0  0  0  0  0  0  0  0
   -0.0000   -3.8444    0.0000 C   0  0  0  0  0  0  0  0  0  0  0  0
   -1.4712   -3.5517    0.0000 C   0  0  0  0  0  0  0  0  0  0  0  0
   -2.7184   -2.7184    0.0000 C   0  0  0  0  0  0  0  0  0  0  0  0
   -3.5517   -1.4712    0.0000 C   0  0  0  0  0  0  0  0  0  0  0  0
   -3.8444    0.0000    0.0000 C   0  0  0  0  0  0  0  0  0  0  0  0
   -3.5517    1.4712    0.0000 C   0  0  0  0  0  0  0  0  0  0  0  0
   -2.7184    2.7184    0.0000 C   0  0  0  0  0  0  0  0  0  0  0  0
   -1.4712    3.5517    0.0000 C   0  0  0  0  0  0  0  0  0  0  0  0
    0.0000    3.8444    0.0000 C   0  0  0  0  0  0  0  0  0  0  0  0
    1.4712    3.5517    0.0000 C   0  0  0  0  0  0  0  0  0  0  0  0
    2.7184    2.7184    0.0000 C   0  0  0  0  0  0  0  0  0  0  0  0
    3.5517    1.4712    0.0000 C   0  0  0  0  0  0  0  0  0  0  0  0
  1  2  1  0
  2  3  2  0
  2  4  1  0
  4  5  1  0
  5  6  2  0
  6  7  1  0
  7  8  2  0
  8  9  1  0
  9 10  2  0
 10 11  1  0
 11 12  2  0
 12 13  1  0
 13 14  2  0
 14 15  1  0
 15 16  2  0
 16 17  1  0
 17 18  2  0
 18 19  1  0
 19 20  2  0
 20  5  1  0
M  END
>  <Title>  (1164) 
idABSTgen8

$$$$

     RDKit          2D

 20 20  0  0  0  0  0  0  0  0999 V2000
    6.5691   -1.2990    0.0000 O   0  0  0  0  0  0  0  0  0  0  0  0
    5.8191    0.0000    0.0000 C   0  0  0  0  0  0  0  0  0  0  0  0
    4.3191    0.0000    0.0000 C   0  0  0  0  0  0  0  0  0  0  0  0
    4.0586   -1.4772    0.0000 C   0  0  0  0  0  0  0  0  0  0  0  0
    3.3086   -2.7762    0.0000 C   0  0  0  0  0  0  0  0  0  0  0  0
    2.1595   -3.7404    0.0000 C   0  0  0  0  0  0  0  0  0  0  0  0
    0.7500   -4.2535    0.0000 C   0  0  0  0  0  0  0  0  0  0  0  0
   -0.7500   -4.2535    0.0000 C   0  0  0  0  0  0  0  0  0  0  0  0
   -2.1595   -3.7404    0.0000 C   0  0  0  0  0  0  0  0  0  0  0  0
   -3.3086   -2.7762    0.0000 C   0  0  0  0  0  0  0  0  0  0  0  0
   -4.0586   -1.4772    0.0000 C   0  0  0  0  0  0  0  0  0  0  0  0
   -4.3191    0.0000    0.0000 C   0  0  0  0  0  0  0  0  0  0  0  0
   -4.0586    1.4772    0.0000 C   0  0  0  0  0  0  0  0  0  0  0  0
   -3.3086    2.7762    0.0000 C   0  0  0  0  0  0  0  0  0  0  0  0
   -2.1595    3.7404    0.0000 C   0  0  0  0  0  0  0  0  0  0  0  0
   -0.7500    4.2535    0.0000 C   0  0  0  0  0  0  0  0  0  0  0  0
    0.7500    4.2535    0.0000 C   0  0  0  0  0  0  0  0  0  0  0  0
    2.1595    3.7404    0.0000 C   0  0  0  0  0  0  0  0  0  0  0  0
    3.3086    2.7762    0.0000 C   0  0  0  0  0  0  0  0  0  0  0  0
    4.0586    1.4772    0.0000 N   0  0  0  0  0  0  0  0  0  0  0  0
  1  2  1  0
  2  3  1  0
  3  4  2  0
  4  5  1  0
  5  6  2  0
  6  7  1  0
  7  8  2  0
  8  9  1  0
  9 10  2  0
 10 11  1  0
 11 12  2  0
 12 13  1  0
 13 14  2  0
 14 15  1  0
 15 16  2  0
 16 17  1  0
 17 18  2  0
 18 19  1  0
 19 20  2  0
 20  3  1  0
M  END
>  <Title>  (1165) 
idABSUgen8

$$$$

     RDKit          2D

 25 27  0  0  0  0  0  0  0  0999 V2000
    3.0000    0.0000    0.0000 C   0  0  0  0  0  0  0  0  0  0  0  0
    1.5000    0.0000    0.0000 C   0  0  0  0  0  0  0  0  0  0  0  0
    0.7500   -1.2990    0.0000 C   0  0  0  0  0  0  0  0  0  0  0  0
   -0.7500   -1.2990    0.0000 C   0  0  0  0  0  0  0  0  0  0  0  0
   -1.5000    0.0000    0.0000 C   0  0  0  0  0  0  0  0  0  0  0  0
   -3.0000    0.0000    0.0000 C   0  0  0  0  0  0  0  0  0  0  0  0
   -3.7500   -1.2990    0.0000 O   0  0  0  0  0  0  0  0  0  0  0  0
   -3.7500    1.2990    0.0000 N   0  0  0  0  0  0  0  0  0  0  0  0
   -5.2500    1.2990    0.0000 C   0  0  0  0  0  0  0  0  0  0  0  0
   -6.1317    0.0855    0.0000 N   0  0  0  0  0  0  0  0  0  0  0  0
   -7.5583    0.5490    0.0000 N   0  0  0  0  0  0  0  0  0  0  0  0
   -7.5583    2.0490    0.0000 N   0  0  0  0  0  0  0  0  0  0  0  0
   -6.1317    2.5126    0.0000 N   0  0  0  0  0  0  0  0  0  0  0  0
   -5.6682    3.9391    0.0000 C   0  0  0  0  0  0  0  0  0  0  0  0
   -4.2009    4.2510    0.0000 C   0  0  0  0  0  0  0  0  0  0  0  0
   -3.7374    5.6776    0.0000 C   0  0  0  0  0  0  0  0  0  0  0  0
   -4.7411    6.7923    0.0000 C   0  0  0  0  0  0  0  0  0  0  0  0
   -4.2776    8.2189    0.0000 C   0  0  0  0  0  0  0  0  0  0  0  0
   -5.2813    9.3336    0.0000 O   0  0  0  0  0  0  0  0  0  0  0  0
   -2.8104    8.5308    0.0000 N   0  0  0  0  0  0  0  0  0  0  0  0
   -2.3468    9.9574    0.0000 O   0  0  0  0  0  0  0  0  0  0  0  0
   -6.2083    6.4805    0.0000 C   0  0  0  0  0  0  0  0  0  0  0  0
   -6.6718    5.0539    0.0000 C   0  0  0  0  0  0  0  0  0  0  0  0
   -0.7500    1.2990    0.0000 N   0  0  0  0  0  0  0  0  0  0  0  0
    0.7500    1.2990    0.0000 C   0  0  0  0  0  0  0  0  0  0  0  0
  1  2  1  0
  2  3  2  0
  3  4  1  0
  4  5  2  0
  5  6  1  0
  6  7  2  0
  6  8  1  0
  8  9  1  0
  9 10  2  0
 10 11  1  0
 11 12  2  0
 12 13  1  0
 13 14  1  0
 14 15  2  0
 15 16  1  0
 16 17  2  0
 17 18  1  0
 18 19  2  0
 18 20  1  0
 20 21  1  0
 17 22  1  0
 22 23  1  0
  5 24  1  0
 24 25  1  0
 25  2  1  0
 13  9  1  0
 23 14  1  0
M  END
>  <Title>  (1166) 
idABSVgen8

$$$$

     RDKit          2D

 32 36  0  0  0  0  0  0  0  0999 V2000
    3.0000    0.0000    0.0000 C   0  0  0  0  0  0  0  0  0  0  0  0
    1.5000    0.0000    0.0000 C   0  0  0  0  0  0  0  0  0  0  0  0
    0.7500   -1.2990    0.0000 C   0  0  0  0  0  0  0  0  0  0  0  0
   -0.7500   -1.2990    0.0000 C   0  0  0  0  0  0  0  0  0  0  0  0
   -1.5000    0.0000    0.0000 C   0  0  0  0  0  0  0  0  0  0  0  0
   -3.0000    0.0000    0.0000 C   0  0  0  0  0  0  0  0  0  0  0  0
   -3.8817   -1.2135    0.0000 N   0  0  0  0  0  0  0  0  0  0  0  0
   -5.3083   -0.7500    0.0000 N   0  0  0  0  0  0  0  0  0  0  0  0
   -5.3083    0.7500    0.0000 N   0  0  0  0  0  0  0  0  0  0  0  0
   -3.8817    1.2135    0.0000 N   0  0  0  0  0  0  0  0  0  0  0  0
   -3.4182    2.6401    0.0000 C   0  0  0  0  0  0  0  0  0  0  0  0
   -1.9509    2.9520    0.0000 C   0  0  0  0  0  0  0  0  0  0  0  0
   -1.4874    4.3786    0.0000 C   0  0  0  0  0  0  0  0  0  0  0  0
   -2.4911    5.4933    0.0000 C   0  0  0  0  0  0  0  0  0  0  0  0
   -2.0276    6.9199    0.0000 C   0  0  0  0  0  0  0  0  0  0  0  0
   -3.0313    8.0346    0.0000 O   0  0  0  0  0  0  0  0  0  0  0  0
   -0.5604    7.2317    0.0000 N   0  0  0  0  0  0  0  0  0  0  0  0
   -0.0968    8.6583    0.0000 C   0  0  0  0  0  0  0  0  0  0  0  0
   -0.9785    9.8718    0.0000 N   0  0  0  0  0  0  0  0  0  0  0  0
   -0.0968   11.0854    0.0000 N   0  0  0  0  0  0  0  0  0  0  0  0
    1.3298   10.6218    0.0000 N   0  0  0  0  0  0  0  0  0  0  0  0
    1.3298    9.1218    0.0000 N   0  0  0  0  0  0  0  0  0  0  0  0
    2.5433    8.2402    0.0000 C   0  0  0  0  0  0  0  0  0  0  0  0
    2.3865    6.7484    0.0000 C   0  0  0  0  0  0  0  0  0  0  0  0
    3.6000    5.8667    0.0000 C   0  0  0  0  0  0  0  0  0  0  0  0
    4.9703    6.4768    0.0000 C   0  0  0  0  0  0  0  0  0  0  0  0
    5.1271    7.9686    0.0000 C   0  0  0  0  0  0  0  0  0  0  0  0
    3.9136    8.8503    0.0000 N   0  0  0  0  0  0  0  0  0  0  0  0
   -3.9583    5.1814    0.0000 C   0  0  0  0  0  0  0  0  0  0  0  0
   -4.4218    3.7548    0.0000 C   0  0  0  0  0  0  0  0  0  0  0  0
   -0.7500    1.2990    0.0000 C   0  0  0  0  0  0  0  0  0  0  0  0
    0.7500    1.2990    0.0000 C   0  0  0  0  0  0  0  0  0  0  0  0
  1  2  1  0
  2  3  2  0
  3  4  1  0
  4  5  2  0
  5  6  1  0
  6  7  2  0
  7  8  1  0
  8  9  2  0
  9 10  1  0
 10 11  1  0
 11 12  2  0
 12 13  1  0
 13 14  2  0
 14 15  1  0
 15 16  2  0
 15 17  1  0
 17 18  1  0
 18 19  2  0
 19 20  1  0
 20 21  2  0
 21 22  1  0
 22 23  1  0
 23 24  2  0
 24 25  1  0
 25 26  2  0
 26 27  1  0
 27 28  2  0
 14 29  1  0
 29 30  2  0
  5 31  1  0
 31 32  2  0
 32  2  1  0
 10  6  1  0
 30 11  1  0
 22 18  1  0
 28 23  1  0
M  END
>  <Title>  (1167) 
idABSWgen8

$$$$

     RDKit          2D

 13 13  0  0  0  0  0  0  0  0999 V2000
    6.2286   -2.5981    0.0000 C   0  0  0  0  0  0  0  0  0  0  0  0
    5.4786   -1.2990    0.0000 C   0  0  0  0  0  0  0  0  0  0  0  0
    6.2286   -0.0000    0.0000 O   0  0  0  0  0  0  0  0  0  0  0  0
    3.9786   -1.2990    0.0000 N   0  0  0  0  0  0  0  0  0  0  0  0
    3.2286   -0.0000    0.0000 C   0  0  0  0  0  0  0  0  0  0  0  0
    3.9786    1.2990    0.0000 O   0  0  0  0  0  0  0  0  0  0  0  0
    1.7286    0.0000    0.0000 C   0  0  0  0  0  0  0  0  0  0  0  0
    1.0777    1.3515    0.0000 C   0  0  0  0  0  0  0  0  0  0  0  0
   -0.3846    1.6852    0.0000 C   0  0  0  0  0  0  0  0  0  0  0  0
   -1.5574    0.7500    0.0000 C   0  0  0  0  0  0  0  0  0  0  0  0
   -1.5574   -0.7500    0.0000 C   0  0  0  0  0  0  0  0  0  0  0  0
   -0.3846   -1.6852    0.0000 C   0  0  0  0  0  0  0  0  0  0  0  0
    1.0777   -1.3515    0.0000 C   0  0  0  0  0  0  0  0  0  0  0  0
  1  2  1  0
  2  3  2  0
  2  4  1  0
  4  5  1  0
  5  6  2  0
  5  7  1  0
  7  8  1  0
  8  9  2  0
  9 10  1  0
 10 11  1  0
 11 12  1  0
 12 13  1  0
 13  7  1  0
M  END
>  <Title>  (1168) 
idABSXgen8

$$$$

     RDKit          2D

 60 69  0  0  0  0  0  0  0  0999 V2000
    6.8169   -2.5505    0.0000 C   0  0  0  0  0  0  0  0  0  0  0  0
    5.9905   -1.2987    0.0000 C   0  0  0  0  0  0  0  0  0  0  0  0
    6.6615    0.0429    0.0000 C   0  0  0  0  0  0  0  0  0  0  0  0
    5.8351    1.2947    0.0000 C   0  0  0  0  0  0  0  0  0  0  0  0
    4.3378    1.2050    0.0000 C   0  0  0  0  0  0  0  0  0  0  0  0
    3.5115    2.4569    0.0000 C   0  0  0  0  0  0  0  0  0  0  0  0
    4.0385    3.8613    0.0000 N   0  0  0  0  0  0  0  0  0  0  0  0
    2.8658    4.7965    0.0000 N   0  0  0  0  0  0  0  0  0  0  0  0
    1.6139    3.9701    0.0000 N   0  0  0  0  0  0  0  0  0  0  0  0
    2.0130    2.5242    0.0000 N   0  0  0  0  0  0  0  0  0  0  0  0
    1.0777    1.3515    0.0000 C   0  0  0  0  0  0  0  0  0  0  0  0
    1.7286    0.0000    0.0000 C   0  0  0  0  0  0  0  0  0  0  0  0
    1.0777   -1.3515    0.0000 C   0  0  0  0  0  0  0  0  0  0  0  0
   -0.3846   -1.6852    0.0000 C   0  0  0  0  0  0  0  0  0  0  0  0
   -1.5574   -0.7500    0.0000 C   0  0  0  0  0  0  0  0  0  0  0  0
   -2.9088   -1.4008    0.0000 C   0  0  0  0  0  0  0  0  0  0  0  0
   -4.2297   -0.6900    0.0000 N   0  0  0  0  0  0  0  0  0  0  0  0
   -5.3139   -1.7266    0.0000 N   0  0  0  0  0  0  0  0  0  0  0  0
   -4.6631   -3.0781    0.0000 N   0  0  0  0  0  0  0  0  0  0  0  0
   -3.1767   -2.8767    0.0000 N   0  0  0  0  0  0  0  0  0  0  0  0
   -2.1401   -3.9609    0.0000 C   0  0  0  0  0  0  0  0  0  0  0  0
   -0.6829   -3.6053    0.0000 C   0  0  0  0  0  0  0  0  0  0  0  0
    0.3537   -4.6895    0.0000 C   0  0  0  0  0  0  0  0  0  0  0  0
   -0.0669   -6.1293    0.0000 C   0  0  0  0  0  0  0  0  0  0  0  0
   -1.5241   -6.4849    0.0000 C   0  0  0  0  0  0  0  0  0  0  0  0
   -2.5607   -5.4007    0.0000 C   0  0  0  0  0  0  0  0  0  0  0  0
   -4.0180   -5.7563    0.0000 C   0  0  0  0  0  0  0  0  0  0  0  0
   -5.0546   -4.6722    0.0000 C   0  0  0  0  0  0  0  0  0  0  0  0
   -6.5118   -5.0278    0.0000 C   0  0  0  0  0  0  0  0  0  0  0  0
   -6.9324   -6.4676    0.0000 C   0  0  0  0  0  0  0  0  0  0  0  0
   -5.8958   -7.5518    0.0000 N   0  0  0  0  0  0  0  0  0  0  0  0
   -4.4386   -7.1962    0.0000 C   0  0  0  0  0  0  0  0  0  0  0  0
   -3.4020   -8.2804    0.0000 C   0  0  0  0  0  0  0  0  0  0  0  0
   -3.8227   -9.7202    0.0000 C   0  0  0  0  0  0  0  0  0  0  0  0
   -2.7861  -10.8044    0.0000 C   0  0  0  0  0  0  0  0  0  0  0  0
   -1.3288  -10.4487    0.0000 C   0  0  0  0  0  0  0  0  0  0  0  0
   -0.9082   -9.0089    0.0000 C   0  0  0  0  0  0  0  0  0  0  0  0
   -1.9448   -7.9247    0.0000 C   0  0  0  0  0  0  0  0  0  0  0  0
   -1.5574    0.7500    0.0000 C   0  0  0  0  0  0  0  0  0  0  0  0
   -0.3846    1.6852    0.0000 C   0  0  0  0  0  0  0  0  0  0  0  0
   -0.7184    3.1476    0.0000 C   0  0  0  0  0  0  0  0  0  0  0  0
    0.2685    4.2772    0.0000 C   0  0  0  0  0  0  0  0  0  0  0  0
   -0.5009    5.5649    0.0000 C   0  0  0  0  0  0  0  0  0  0  0  0
   -1.9633    5.2311    0.0000 C   0  0  0  0  0  0  0  0  0  0  0  0
   -3.0929    6.2180    0.0000 C   0  0  0  0  0  0  0  0  0  0  0  0
   -4.5553    5.8843    0.0000 N   0  0  0  0  0  0  0  0  0  0  0  0
   -5.3246    7.1719    0.0000 N   0  0  0  0  0  0  0  0  0  0  0  0
   -4.3377    8.3015    0.0000 N   0  0  0  0  0  0  0  0  0  0  0  0
   -2.9584    7.7120    0.0000 N   0  0  0  0  0  0  0  0  0  0  0  0
   -1.6707    8.4813    0.0000 C   0  0  0  0  0  0  0  0  0  0  0  0
   -1.6932    9.9812    0.0000 C   0  0  0  0  0  0  0  0  0  0  0  0
   -0.4055   10.7505    0.0000 C   0  0  0  0  0  0  0  0  0  0  0  0
    0.9046   10.0200    0.0000 C   0  0  0  0  0  0  0  0  0  0  0  0
    0.9271    8.5202    0.0000 C   0  0  0  0  0  0  0  0  0  0  0  0
   -0.3606    7.7509    0.0000 C   0  0  0  0  0  0  0  0  0  0  0  0
   -2.0977    3.7372    0.0000 C   0  0  0  0  0  0  0  0  0  0  0  0
   -3.3854    2.9678    0.0000 O   0  0  0  0  0  0  0  0  0  0  0  0
    3.6668   -0.1365    0.0000 N   0  0  0  0  0  0  0  0  0  0  0  0
    4.4932   -1.3884    0.0000 C   0  0  0  0  0  0  0  0  0  0  0  0
    3.8222   -2.7299    0.0000 O   0  0  0  0  0  0  0  0  0  0  0  0
  1  2  1  0
  2  3  2  0
  3  4  1  0
  4  5  2  0
  5  6  1  0
  6  7  2  0
  7  8  1  0
  8  9  2  0
  9 10  1  0
 10 11  1  0
 11 12  1  0
 12 13  1  0
 13 14  1  0
 14 15  2  0
 15 16  1  0
 16 17  2  0
 17 18  1  0
 18 19  2  0
 19 20  1  0
 20 21  1  0
 21 22  2  0
 22 23  1  0
 23 24  2  0
 24 25  1  0
 25 26  2  0
 26 27  1  0
 27 28  2  0
 28 29  1  0
 29 30  2  0
 30 31  1  0
 31 32  2  0
 32 33  1  0
 33 34  2  0
 34 35  1  0
 35 36  2  0
 36 37  1  0
 37 38  2  0
 15 39  1  0
 39 40  2  0
 40 41  1  0
 41 42  2  0
 42 43  1  0
 43 44  2  0
 44 45  1  0
 45 46  2  0
 46 47  1  0
 47 48  2  0
 48 49  1  0
 49 50  1  0
 50 51  2  0
 51 52  1  0
 52 53  2  0
 53 54  1  0
 54 55  2  0
 44 56  1  0
 56 57  2  0
  5 58  1  0
 58 59  1  0
 59 60  2  0
 59  2  1  0
 10  6  1  0
 40 11  1  0
 56 41  1  0
 20 16  1  0
 26 21  1  0
 32 27  1  0
 38 33  1  0
 49 45  1  0
 55 50  1  0
M  END
>  <Title>  (1169) 
idABSYgen8

$$$$

     RDKit          2D

 43 49  0  0  0  0  0  0  0  0999 V2000
    6.9199   -6.0801    0.0000 C   0  0  0  0  0  0  0  0  0  0  0  0
    5.4933   -6.5436    0.0000 C   0  0  0  0  0  0  0  0  0  0  0  0
    5.1814   -8.0108    0.0000 C   0  0  0  0  0  0  0  0  0  0  0  0
    3.7548   -8.4743    0.0000 C   0  0  0  0  0  0  0  0  0  0  0  0
    2.6401   -7.4707    0.0000 C   0  0  0  0  0  0  0  0  0  0  0  0
    1.2135   -7.9342    0.0000 C   0  0  0  0  0  0  0  0  0  0  0  0
    0.7500   -9.3608    0.0000 N   0  0  0  0  0  0  0  0  0  0  0  0
   -0.7500   -9.3608    0.0000 N   0  0  0  0  0  0  0  0  0  0  0  0
   -1.2135   -7.9342    0.0000 N   0  0  0  0  0  0  0  0  0  0  0  0
   -0.0000   -7.0525    0.0000 N   0  0  0  0  0  0  0  0  0  0  0  0
   -0.0000   -5.5525    0.0000 C   0  0  0  0  0  0  0  0  0  0  0  0
    1.4095   -5.0395    0.0000 C   0  0  0  0  0  0  0  0  0  0  0  0
    2.1595   -3.7404    0.0000 C   0  0  0  0  0  0  0  0  0  0  0  0
    1.8991   -2.2632    0.0000 C   0  0  0  0  0  0  0  0  0  0  0  0
    3.1981   -1.5132    0.0000 N   0  0  0  0  0  0  0  0  0  0  0  0
    4.4971   -2.2632    0.0000 C   0  0  0  0  0  0  0  0  0  0  0  0
    4.4971   -3.7632    0.0000 C   0  0  0  0  0  0  0  0  0  0  0  0
    5.7962   -4.5132    0.0000 C   0  0  0  0  0  0  0  0  0  0  0  0
    7.0952   -3.7632    0.0000 C   0  0  0  0  0  0  0  0  0  0  0  0
    7.0952   -2.2632    0.0000 C   0  0  0  0  0  0  0  0  0  0  0  0
    5.7962   -1.5132    0.0000 C   0  0  0  0  0  0  0  0  0  0  0  0
    0.7500   -1.2990    0.0000 C   0  0  0  0  0  0  0  0  0  0  0  0
    1.5000    0.0000    0.0000 C   0  0  0  0  0  0  0  0  0  0  0  0
    0.7500    1.2990    0.0000 C   0  0  0  0  0  0  0  0  0  0  0  0
   -0.7500    1.2990    0.0000 C   0  0  0  0  0  0  0  0  0  0  0  0
   -1.5000    0.0000    0.0000 C   0  0  0  0  0  0  0  0  0  0  0  0
   -0.7500   -1.2990    0.0000 C   0  0  0  0  0  0  0  0  0  0  0  0
   -1.8991   -2.2632    0.0000 C   0  0  0  0  0  0  0  0  0  0  0  0
   -3.3972   -2.1885    0.0000 C   0  0  0  0  0  0  0  0  0  0  0  0
   -4.3897   -3.3131    0.0000 C   0  0  0  0  0  0  0  0  0  0  0  0
   -4.1293   -4.7903    0.0000 C   0  0  0  0  0  0  0  0  0  0  0  0
   -5.3472   -5.6659    0.0000 C   0  0  0  0  0  0  0  0  0  0  0  0
   -6.7144   -5.0490    0.0000 C   0  0  0  0  0  0  0  0  0  0  0  0
   -7.9323   -5.9246    0.0000 C   0  0  0  0  0  0  0  0  0  0  0  0
   -7.7830   -7.4172    0.0000 C   0  0  0  0  0  0  0  0  0  0  0  0
   -6.4157   -8.0341    0.0000 C   0  0  0  0  0  0  0  0  0  0  0  0
   -5.1978   -7.1585    0.0000 C   0  0  0  0  0  0  0  0  0  0  0  0
   -2.8119   -5.5077    0.0000 C   0  0  0  0  0  0  0  0  0  0  0  0
   -1.4095   -5.0395    0.0000 C   0  0  0  0  0  0  0  0  0  0  0  0
   -2.1595   -3.7404    0.0000 C   0  0  0  0  0  0  0  0  0  0  0  0
   -3.6368   -4.0009    0.0000 O   0  0  0  0  0  0  0  0  0  0  0  0
    2.9520   -6.0034    0.0000 C   0  0  0  0  0  0  0  0  0  0  0  0
    4.3786   -5.5399    0.0000 C   0  0  0  0  0  0  0  0  0  0  0  0
  1  2  1  0
  2  3  2  0
  3  4  1  0
  4  5  2  0
  5  6  1  0
  6  7  2  0
  7  8  1  0
  8  9  2  0
  9 10  1  0
 10 11  1  0
 11 12  2  0
 12 13  1  0
 13 14  2  0
 14 15  1  0
 15 16  1  0
 16 17  2  0
 17 18  1  0
 18 19  2  0
 19 20  1  0
 20 21  2  0
 14 22  1  0
 22 23  2  0
 23 24  1  0
 24 25  2  0
 25 26  1  0
 26 27  2  0
 27 28  1  0
 28 29  2  0
 29 30  1  0
 30 31  2  0
 31 32  1  0
 32 33  2  0
 33 34  1  0
 34 35  2  0
 35 36  1  0
 36 37  2  0
 31 38  1  0
 38 39  2  0
 39 40  1  0
 40 41  2  0
  5 42  1  0
 42 43  2  0
 43  2  1  0
 10  6  1  0
 39 11  1  0
 21 16  1  0
 27 22  1  0
 40 28  1  0
 37 32  1  0
M  END
>  <Title>  (1170) 
idABSZgen8

$$$$

     RDKit          2D

 27 29  0  0  0  0  0  0  0  0999 V2000
    3.0000    0.0000    0.0000 C   0  0  0  0  0  0  0  0  0  0  0  0
    1.5000    0.0000    0.0000 C   0  0  0  0  0  0  0  0  0  0  0  0
    0.7500   -1.2990    0.0000 C   0  0  0  0  0  0  0  0  0  0  0  0
   -0.7500   -1.2990    0.0000 C   0  0  0  0  0  0  0  0  0  0  0  0
   -1.5000    0.0000    0.0000 C   0  0  0  0  0  0  0  0  0  0  0  0
   -3.0000    0.0000    0.0000 C   0  0  0  0  0  0  0  0  0  0  0  0
   -3.7500   -1.2990    0.0000 O   0  0  0  0  0  0  0  0  0  0  0  0
   -3.7500    1.2990    0.0000 N   0  0  0  0  0  0  0  0  0  0  0  0
   -5.2500    1.2990    0.0000 C   0  0  0  0  0  0  0  0  0  0  0  0
   -6.1317    0.0855    0.0000 N   0  0  0  0  0  0  0  0  0  0  0  0
   -7.5583    0.5490    0.0000 N   0  0  0  0  0  0  0  0  0  0  0  0
   -7.5583    2.0490    0.0000 N   0  0  0  0  0  0  0  0  0  0  0  0
   -6.1317    2.5126    0.0000 N   0  0  0  0  0  0  0  0  0  0  0  0
   -5.6682    3.9391    0.0000 C   0  0  0  0  0  0  0  0  0  0  0  0
   -4.2009    4.2510    0.0000 C   0  0  0  0  0  0  0  0  0  0  0  0
   -3.7374    5.6776    0.0000 C   0  0  0  0  0  0  0  0  0  0  0  0
   -4.7411    6.7923    0.0000 C   0  0  0  0  0  0  0  0  0  0  0  0
   -4.2776    8.2189    0.0000 C   0  0  0  0  0  0  0  0  0  0  0  0
   -5.2813    9.3336    0.0000 O   0  0  0  0  0  0  0  0  0  0  0  0
   -2.8104    8.5308    0.0000 N   0  0  0  0  0  0  0  0  0  0  0  0
   -2.3468    9.9574    0.0000 O   0  0  0  0  0  0  0  0  0  0  0  0
   -6.2083    6.4805    0.0000 N   0  0  0  0  0  0  0  0  0  0  0  0
   -6.6718    5.0539    0.0000 C   0  0  0  0  0  0  0  0  0  0  0  0
   -8.1391    4.7420    0.0000 O   0  0  0  0  0  0  0  0  0  0  0  0
   -0.7500    1.2990    0.0000 N   0  0  0  0  0  0  0  0  0  0  0  0
    0.7500    1.2990    0.0000 C   0  0  0  0  0  0  0  0  0  0  0  0
    1.5000    2.5981    0.0000 O   0  0  0  0  0  0  0  0  0  0  0  0
  1  2  1  0
  2  3  2  0
  3  4  1  0
  4  5  2  0
  5  6  1  0
  6  7  2  0
  6  8  1  0
  8  9  1  0
  9 10  2  0
 10 11  1  0
 11 12  2  0
 12 13  1  0
 13 14  1  0
 14 15  2  0
 15 16  1  0
 16 17  2  0
 17 18  1  0
 18 19  2  0
 18 20  1  0
 20 21  1  0
 17 22  1  0
 22 23  1  0
 23 24  2  0
  5 25  1  0
 25 26  1  0
 26 27  2  0
 26  2  1  0
 13  9  1  0
 23 14  1  0
M  END
>  <Title>  (1171) 
idABTAgen8

$$$$

     RDKit          2D

 37 41  0  0  0  0  0  0  0  0999 V2000
    3.0000    0.0000    0.0000 C   0  0  0  0  0  0  0  0  0  0  0  0
    1.5000    0.0000    0.0000 C   0  0  0  0  0  0  0  0  0  0  0  0
    0.7500    1.2990    0.0000 C   0  0  0  0  0  0  0  0  0  0  0  0
   -0.7500    1.2990    0.0000 C   0  0  0  0  0  0  0  0  0  0  0  0
   -1.5000    0.0000    0.0000 C   0  0  0  0  0  0  0  0  0  0  0  0
   -3.0000    0.0000    0.0000 C   0  0  0  0  0  0  0  0  0  0  0  0
   -3.8817   -1.2135    0.0000 N   0  0  0  0  0  0  0  0  0  0  0  0
   -5.3083   -0.7500    0.0000 N   0  0  0  0  0  0  0  0  0  0  0  0
   -5.3083    0.7500    0.0000 N   0  0  0  0  0  0  0  0  0  0  0  0
   -3.8817    1.2135    0.0000 N   0  0  0  0  0  0  0  0  0  0  0  0
   -3.4182    2.6401    0.0000 C   0  0  0  0  0  0  0  0  0  0  0  0
   -1.9509    2.9520    0.0000 C   0  0  0  0  0  0  0  0  0  0  0  0
   -1.4874    4.3786    0.0000 C   0  0  0  0  0  0  0  0  0  0  0  0
   -2.4911    5.4933    0.0000 C   0  0  0  0  0  0  0  0  0  0  0  0
   -2.0276    6.9199    0.0000 C   0  0  0  0  0  0  0  0  0  0  0  0
   -3.0313    8.0346    0.0000 O   0  0  0  0  0  0  0  0  0  0  0  0
   -0.5604    7.2317    0.0000 N   0  0  0  0  0  0  0  0  0  0  0  0
   -0.0968    8.6583    0.0000 C   0  0  0  0  0  0  0  0  0  0  0  0
   -0.9785    9.8718    0.0000 N   0  0  0  0  0  0  0  0  0  0  0  0
   -0.0968   11.0854    0.0000 N   0  0  0  0  0  0  0  0  0  0  0  0
    1.3298   10.6218    0.0000 N   0  0  0  0  0  0  0  0  0  0  0  0
    1.3298    9.1218    0.0000 N   0  0  0  0  0  0  0  0  0  0  0  0
    2.5433    8.2402    0.0000 C   0  0  0  0  0  0  0  0  0  0  0  0
    2.3865    6.7484    0.0000 C   0  0  0  0  0  0  0  0  0  0  0  0
    3.6000    5.8667    0.0000 C   0  0  0  0  0  0  0  0  0  0  0  0
    4.9703    6.4768    0.0000 C   0  0  0  0  0  0  0  0  0  0  0  0
    6.1839    5.5951    0.0000 C   0  0  0  0  0  0  0  0  0  0  0  0
    7.5542    6.2052    0.0000 O   0  0  0  0  0  0  0  0  0  0  0  0
    6.0271    4.1033    0.0000 N   0  0  0  0  0  0  0  0  0  0  0  0
    7.2406    3.2217    0.0000 O   0  0  0  0  0  0  0  0  0  0  0  0
    5.1271    7.9686    0.0000 C   0  0  0  0  0  0  0  0  0  0  0  0
    3.9136    8.8503    0.0000 C   0  0  0  0  0  0  0  0  0  0  0  0
   -3.9583    5.1814    0.0000 C   0  0  0  0  0  0  0  0  0  0  0  0
   -4.4218    3.7548    0.0000 C   0  0  0  0  0  0  0  0  0  0  0  0
   -0.7500   -1.2990    0.0000 C   0  0  0  0  0  0  0  0  0  0  0  0
   -1.5000   -2.5981    0.0000 O   0  0  0  0  0  0  0  0  0  0  0  0
    0.7500   -1.2990    0.0000 N   0  0  0  0  0  0  0  0  0  0  0  0
  1  2  1  0
  2  3  2  0
  3  4  1  0
  4  5  2  0
  5  6  1  0
  6  7  2  0
  7  8  1  0
  8  9  2  0
  9 10  1  0
 10 11  1  0
 11 12  2  0
 12 13  1  0
 13 14  2  0
 14 15  1  0
 15 16  2  0
 15 17  1  0
 17 18  1  0
 18 19  2  0
 19 20  1  0
 20 21  2  0
 21 22  1  0
 22 23  1  0
 23 24  2  0
 24 25  1  0
 25 26  2  0
 26 27  1  0
 27 28  2  0
 27 29  1  0
 29 30  1  0
 26 31  1  0
 31 32  1  0
 14 33  1  0
 33 34  2  0
  5 35  1  0
 35 36  2  0
 35 37  1  0
 37  2  1  0
 10  6  1  0
 34 11  1  0
 22 18  1  0
 32 23  1  0
M  END
>  <Title>  (1172) 
idABTBgen8

$$$$

     RDKit          2D

 43 49  0  0  0  0  0  0  0  0999 V2000
    3.0000    0.0000    0.0000 C   0  0  0  0  0  0  0  0  0  0  0  0
    1.5000    0.0000    0.0000 C   0  0  0  0  0  0  0  0  0  0  0  0
    0.7500   -1.2990    0.0000 C   0  0  0  0  0  0  0  0  0  0  0  0
   -0.7500   -1.2990    0.0000 C   0  0  0  0  0  0  0  0  0  0  0  0
   -1.5000    0.0000    0.0000 C   0  0  0  0  0  0  0  0  0  0  0  0
   -3.0000    0.0000    0.0000 C   0  0  0  0  0  0  0  0  0  0  0  0
   -3.8817   -1.2135    0.0000 N   0  0  0  0  0  0  0  0  0  0  0  0
   -5.3083   -0.7500    0.0000 N   0  0  0  0  0  0  0  0  0  0  0  0
   -5.3083    0.7500    0.0000 N   0  0  0  0  0  0  0  0  0  0  0  0
   -3.8817    1.2135    0.0000 N   0  0  0  0  0  0  0  0  0  0  0  0
   -3.4182    2.6401    0.0000 C   0  0  0  0  0  0  0  0  0  0  0  0
   -1.9509    2.9520    0.0000 C   0  0  0  0  0  0  0  0  0  0  0  0
   -1.4874    4.3786    0.0000 C   0  0  0  0  0  0  0  0  0  0  0  0
   -2.4911    5.4933    0.0000 C   0  0  0  0  0  0  0  0  0  0  0  0
   -3.9583    5.1814    0.0000 C   0  0  0  0  0  0  0  0  0  0  0  0
   -4.4218    3.7548    0.0000 N   0  0  0  0  0  0  0  0  0  0  0  0
   -5.8891    3.4430    0.0000 C   0  0  0  0  0  0  0  0  0  0  0  0
   -6.4992    2.0726    0.0000 N   0  0  0  0  0  0  0  0  0  0  0  0
   -7.9910    2.2294    0.0000 N   0  0  0  0  0  0  0  0  0  0  0  0
   -8.3028    3.6967    0.0000 N   0  0  0  0  0  0  0  0  0  0  0  0
   -7.0038    4.4467    0.0000 N   0  0  0  0  0  0  0  0  0  0  0  0
   -6.8470    5.9384    0.0000 C   0  0  0  0  0  0  0  0  0  0  0  0
   -5.4767    6.5485    0.0000 C   0  0  0  0  0  0  0  0  0  0  0  0
   -5.3199    8.0403    0.0000 C   0  0  0  0  0  0  0  0  0  0  0  0
   -6.5334    8.9220    0.0000 C   0  0  0  0  0  0  0  0  0  0  0  0
   -6.3766   10.4138    0.0000 C   0  0  0  0  0  0  0  0  0  0  0  0
   -7.5901   11.2955    0.0000 O   0  0  0  0  0  0  0  0  0  0  0  0
   -5.0063   11.0239    0.0000 N   0  0  0  0  0  0  0  0  0  0  0  0
   -4.8495   12.5157    0.0000 C   0  0  0  0  0  0  0  0  0  0  0  0
   -5.9642   13.5194    0.0000 N   0  0  0  0  0  0  0  0  0  0  0  0
   -5.3541   14.8897    0.0000 N   0  0  0  0  0  0  0  0  0  0  0  0
   -3.8623   14.7329    0.0000 N   0  0  0  0  0  0  0  0  0  0  0  0
   -3.5505   13.2657    0.0000 N   0  0  0  0  0  0  0  0  0  0  0  0
   -2.1801   12.6556    0.0000 C   0  0  0  0  0  0  0  0  0  0  0  0
   -2.0234   11.1638    0.0000 C   0  0  0  0  0  0  0  0  0  0  0  0
   -0.6530   10.5537    0.0000 C   0  0  0  0  0  0  0  0  0  0  0  0
    0.5605   11.4354    0.0000 C   0  0  0  0  0  0  0  0  0  0  0  0
    0.4037   12.9271    0.0000 C   0  0  0  0  0  0  0  0  0  0  0  0
   -0.9666   13.5372    0.0000 C   0  0  0  0  0  0  0  0  0  0  0  0
   -7.9037    8.3119    0.0000 C   0  0  0  0  0  0  0  0  0  0  0  0
   -8.0605    6.8201    0.0000 C   0  0  0  0  0  0  0  0  0  0  0  0
   -0.7500    1.2990    0.0000 C   0  0  0  0  0  0  0  0  0  0  0  0
    0.7500    1.2990    0.0000 C   0  0  0  0  0  0  0  0  0  0  0  0
  1  2  1  0
  2  3  2  0
  3  4  1  0
  4  5  2  0
  5  6  1  0
  6  7  2  0
  7  8  1  0
  8  9  2  0
  9 10  1  0
 10 11  1  0
 11 12  1  0
 12 13  1  0
 13 14  1  0
 14 15  1  0
 15 16  1  0
 16 17  1  0
 17 18  2  0
 18 19  1  0
 19 20  2  0
 20 21  1  0
 21 22  1  0
 22 23  2  0
 23 24  1  0
 24 25  2  0
 25 26  1  0
 26 27  2  0
 26 28  1  0
 28 29  1  0
 29 30  2  0
 30 31  1  0
 31 32  2  0
 32 33  1  0
 33 34  1  0
 34 35  2  0
 35 36  1  0
 36 37  2  0
 37 38  1  0
 38 39  2  0
 25 40  1  0
 40 41  2  0
  5 42  1  0
 42 43  2  0
 43  2  1  0
 10  6  1  0
 16 11  1  0
 21 17  1  0
 41 22  1  0
 33 29  1  0
 39 34  1  0
M  END
>  <Title>  (1173) 
idABTCgen8

$$$$

     RDKit          2D

 64 74  0  0  0  0  0  0  0  0999 V2000
    3.7500   -1.2990    0.0000 C   0  0  0  0  0  0  0  0  0  0  0  0
    3.0000    0.0000    0.0000 O   0  0  0  0  0  0  0  0  0  0  0  0
    1.5000    0.0000    0.0000 C   0  0  0  0  0  0  0  0  0  0  0  0
    0.7500   -1.2990    0.0000 C   0  0  0  0  0  0  0  0  0  0  0  0
   -0.7500   -1.2990    0.0000 C   0  0  0  0  0  0  0  0  0  0  0  0
   -1.5000    0.0000    0.0000 C   0  0  0  0  0  0  0  0  0  0  0  0
   -3.0000    0.0000    0.0000 N   0  0  0  0  0  0  0  0  0  0  0  0
   -3.7500    1.2990    0.0000 N   0  0  0  0  0  0  0  0  0  0  0  0
   -5.2500    1.2990    0.0000 N   0  0  0  0  0  0  0  0  0  0  0  0
   -6.0000    0.0000    0.0000 N   0  0  0  0  0  0  0  0  0  0  0  0
   -5.2500   -1.2990    0.0000 N   0  0  0  0  0  0  0  0  0  0  0  0
   -3.7500   -1.2990    0.0000 N   0  0  0  0  0  0  0  0  0  0  0  0
   -3.0000   -2.5981    0.0000 C   0  0  0  0  0  0  0  0  0  0  0  0
   -1.5082   -2.7549    0.0000 C   0  0  0  0  0  0  0  0  0  0  0  0
   -1.1963   -4.2221    0.0000 N   0  0  0  0  0  0  0  0  0  0  0  0
   -2.4954   -4.9721    0.0000 N   0  0  0  0  0  0  0  0  0  0  0  0
   -3.6101   -3.9684    0.0000 N   0  0  0  0  0  0  0  0  0  0  0  0
   -5.0773   -4.2803    0.0000 C   0  0  0  0  0  0  0  0  0  0  0  0
   -6.0810   -3.1655    0.0000 C   0  0  0  0  0  0  0  0  0  0  0  0
   -7.5482   -3.4774    0.0000 C   0  0  0  0  0  0  0  0  0  0  0  0
   -8.0118   -4.9040    0.0000 C   0  0  0  0  0  0  0  0  0  0  0  0
   -9.4790   -5.2159    0.0000 C   0  0  0  0  0  0  0  0  0  0  0  0
  -10.0891   -6.5862    0.0000 N   0  0  0  0  0  0  0  0  0  0  0  0
  -11.5809   -6.4294    0.0000 N   0  0  0  0  0  0  0  0  0  0  0  0
  -11.8927   -4.9622    0.0000 N   0  0  0  0  0  0  0  0  0  0  0  0
  -10.5937   -4.2122    0.0000 N   0  0  0  0  0  0  0  0  0  0  0  0
  -10.4369   -2.7204    0.0000 C   0  0  0  0  0  0  0  0  0  0  0  0
   -9.0666   -2.1103    0.0000 C   0  0  0  0  0  0  0  0  0  0  0  0
   -8.9098   -0.6185    0.0000 C   0  0  0  0  0  0  0  0  0  0  0  0
  -10.1233    0.2632    0.0000 C   0  0  0  0  0  0  0  0  0  0  0  0
  -11.4936   -0.3469    0.0000 C   0  0  0  0  0  0  0  0  0  0  0  0
  -11.6504   -1.8387    0.0000 C   0  0  0  0  0  0  0  0  0  0  0  0
   -7.0081   -6.0187    0.0000 C   0  0  0  0  0  0  0  0  0  0  0  0
   -5.5409   -5.7068    0.0000 C   0  0  0  0  0  0  0  0  0  0  0  0
   -4.5372   -6.8216    0.0000 C   0  0  0  0  0  0  0  0  0  0  0  0
   -3.0454   -6.6648    0.0000 C   0  0  0  0  0  0  0  0  0  0  0  0
   -2.4353   -8.0351    0.0000 N   0  0  0  0  0  0  0  0  0  0  0  0
   -3.5500   -9.0388    0.0000 N   0  0  0  0  0  0  0  0  0  0  0  0
   -4.8490   -8.2888    0.0000 N   0  0  0  0  0  0  0  0  0  0  0  0
   -6.2193   -8.8989    0.0000 C   0  0  0  0  0  0  0  0  0  0  0  0
   -7.4329   -8.0172    0.0000 C   0  0  0  0  0  0  0  0  0  0  0  0
   -8.8032   -8.6273    0.0000 C   0  0  0  0  0  0  0  0  0  0  0  0
   -8.9600  -10.1191    0.0000 C   0  0  0  0  0  0  0  0  0  0  0  0
  -10.3303  -10.7292    0.0000 C   0  0  0  0  0  0  0  0  0  0  0  0
  -11.6293   -9.9792    0.0000 N   0  0  0  0  0  0  0  0  0  0  0  0
  -12.7441  -10.9829    0.0000 N   0  0  0  0  0  0  0  0  0  0  0  0
  -12.1339  -12.3532    0.0000 N   0  0  0  0  0  0  0  0  0  0  0  0
  -10.6422  -12.1964    0.0000 N   0  0  0  0  0  0  0  0  0  0  0  0
   -9.6385  -13.3111    0.0000 C   0  0  0  0  0  0  0  0  0  0  0  0
   -8.1712  -12.9993    0.0000 C   0  0  0  0  0  0  0  0  0  0  0  0
   -7.1676  -14.1140    0.0000 C   0  0  0  0  0  0  0  0  0  0  0  0
   -7.6311  -15.5406    0.0000 C   0  0  0  0  0  0  0  0  0  0  0  0
   -9.0983  -15.8524    0.0000 C   0  0  0  0  0  0  0  0  0  0  0  0
  -10.1020  -14.7377    0.0000 C   0  0  0  0  0  0  0  0  0  0  0  0
  -11.5692  -15.0496    0.0000 C   0  0  0  0  0  0  0  0  0  0  0  0
  -12.0327  -16.4762    0.0000 C   0  0  0  0  0  0  0  0  0  0  0  0
  -13.5000  -16.7880    0.0000 C   0  0  0  0  0  0  0  0  0  0  0  0
  -14.5037  -15.6733    0.0000 C   0  0  0  0  0  0  0  0  0  0  0  0
  -14.0401  -14.2467    0.0000 C   0  0  0  0  0  0  0  0  0  0  0  0
  -12.5729  -13.9349    0.0000 C   0  0  0  0  0  0  0  0  0  0  0  0
   -7.7465  -11.0008    0.0000 C   0  0  0  0  0  0  0  0  0  0  0  0
   -6.3761  -10.3907    0.0000 C   0  0  0  0  0  0  0  0  0  0  0  0
   -0.7500    1.2990    0.0000 C   0  0  0  0  0  0  0  0  0  0  0  0
    0.7500    1.2990    0.0000 C   0  0  0  0  0  0  0  0  0  0  0  0
  1  2  1  0
  2  3  1  0
  3  4  2  0
  4  5  1  0
  5  6  2  0
  6  7  1  0
  7  8  1  0
  8  9  2  0
  9 10  1  0
 10 11  2  0
 11 12  1  0
 12 13  1  0
 13 14  2  0
 14 15  1  0
 15 16  2  0
 16 17  1  0
 17 18  1  0
 18 19  2  0
 19 20  1  0
 20 21  2  0
 21 22  1  0
 22 23  2  0
 23 24  1  0
 24 25  2  0
 25 26  1  0
 26 27  1  0
 27 28  2  0
 28 29  1  0
 29 30  2  0
 30 31  1  0
 31 32  2  0
 21 33  1  0
 33 34  2  0
 34 35  1  0
 35 36  2  0
 36 37  1  0
 37 38  2  0
 38 39  1  0
 39 40  1  0
 40 41  2  0
 41 42  1  0
 42 43  2  0
 43 44  1  0
 44 45  2  0
 45 46  1  0
 46 47  2  0
 47 48  1  0
 48 49  1  0
 49 50  2  0
 50 51  1  0
 51 52  2  0
 52 53  1  0
 53 54  2  0
 54 55  1  0
 55 56  2  0
 56 57  1  0
 57 58  2  0
 58 59  1  0
 59 60  2  0
 43 61  1  0
 61 62  2  0
  6 63  1  0
 63 64  2  0
 64  3  1  0
 12  7  1  0
 17 13  1  0
 34 18  1  0
 39 35  1  0
 62 40  1  0
 26 22  1  0
 32 27  1  0
 48 44  1  0
 54 49  1  0
 60 55  1  0
M  END
>  <Title>  (1174) 
idABTDgen8

$$$$

     RDKit          2D

  8  8  0  0  0  0  0  0  0  0999 V2000
    3.0000    0.0000    0.0000 C   0  0  0  0  0  0  0  0  0  0  0  0
    1.5000    0.0000    0.0000 C   0  0  0  0  0  0  0  0  0  0  0  0
    0.7500   -1.2990    0.0000 C   0  0  0  0  0  0  0  0  0  0  0  0
   -0.7500   -1.2990    0.0000 C   0  0  0  0  0  0  0  0  0  0  0  0
   -1.5000    0.0000    0.0000 C   0  0  0  0  0  0  0  0  0  0  0  0
   -0.7500    1.2990    0.0000 C   0  0  0  0  0  0  0  0  0  0  0  0
    0.7500    1.2990    0.0000 C   0  0  0  0  0  0  0  0  0  0  0  0
    1.5000    2.5981    0.0000 O   0  0  0  0  0  0  0  0  0  0  0  0
  1  2  1  0
  2  3  2  0
  3  4  1  0
  4  5  2  0
  5  6  1  0
  6  7  2  0
  7  8  1  0
  7  2  1  0
M  END
>  <Title>  (1175) 
idABTEgen8

$$$$

     RDKit          2D

 33 33  0  0  0  0  0  0  0  0999 V2000
    9.4251   -1.2990    0.0000 C   0  0  0  0  0  0  0  0  0  0  0  0
    8.6751   -0.0000    0.0000 O   0  0  0  0  0  0  0  0  0  0  0  0
    7.1751    0.0000    0.0000 C   0  0  0  0  0  0  0  0  0  0  0  0
    7.0183   -1.4918    0.0000 C   0  0  0  0  0  0  0  0  0  0  0  0
    6.5548   -2.9184    0.0000 C   0  0  0  0  0  0  0  0  0  0  0  0
    5.8048   -4.2174    0.0000 C   0  0  0  0  0  0  0  0  0  0  0  0
    4.8011   -5.3321    0.0000 C   0  0  0  0  0  0  0  0  0  0  0  0
    3.5875   -6.2138    0.0000 C   0  0  0  0  0  0  0  0  0  0  0  0
    2.2172   -6.8239    0.0000 C   0  0  0  0  0  0  0  0  0  0  0  0
    0.7500   -7.1358    0.0000 C   0  0  0  0  0  0  0  0  0  0  0  0
   -0.7500   -7.1358    0.0000 C   0  0  0  0  0  0  0  0  0  0  0  0
   -2.2172   -6.8239    0.0000 C   0  0  0  0  0  0  0  0  0  0  0  0
   -3.5875   -6.2138    0.0000 C   0  0  0  0  0  0  0  0  0  0  0  0
   -4.8011   -5.3321    0.0000 C   0  0  0  0  0  0  0  0  0  0  0  0
   -5.8048   -4.2174    0.0000 C   0  0  0  0  0  0  0  0  0  0  0  0
   -6.5548   -2.9184    0.0000 C   0  0  0  0  0  0  0  0  0  0  0  0
   -7.0183   -1.4918    0.0000 C   0  0  0  0  0  0  0  0  0  0  0  0
   -7.1751    0.0000    0.0000 C   0  0  0  0  0  0  0  0  0  0  0  0
   -7.0183    1.4918    0.0000 C   0  0  0  0  0  0  0  0  0  0  0  0
   -6.5548    2.9184    0.0000 C   0  0  0  0  0  0  0  0  0  0  0  0
   -5.8048    4.2174    0.0000 C   0  0  0  0  0  0  0  0  0  0  0  0
   -4.8011    5.3321    0.0000 C   0  0  0  0  0  0  0  0  0  0  0  0
   -3.5875    6.2138    0.0000 C   0  0  0  0  0  0  0  0  0  0  0  0
   -2.2172    6.8239    0.0000 C   0  0  0  0  0  0  0  0  0  0  0  0
   -0.7500    7.1358    0.0000 C   0  0  0  0  0  0  0  0  0  0  0  0
    0.7500    7.1358    0.0000 C   0  0  0  0  0  0  0  0  0  0  0  0
    2.2172    6.8239    0.0000 C   0  0  0  0  0  0  0  0  0  0  0  0
    3.5875    6.2138    0.0000 C   0  0  0  0  0  0  0  0  0  0  0  0
    4.8011    5.3321    0.0000 C   0  0  0  0  0  0  0  0  0  0  0  0
    5.8048    4.2174    0.0000 C   0  0  0  0  0  0  0  0  0  0  0  0
    6.5548    2.9184    0.0000 C   0  0  0  0  0  0  0  0  0  0  0  0
    7.0183    1.4918    0.0000 C   0  0  0  0  0  0  0  0  0  0  0  0
    8.4855    1.8037    0.0000 C   0  0  0  0  0  0  0  0  0  0  0  0
  1  2  1  0
  2  3  1  0
  3  4  2  0
  4  5  1  0
  5  6  2  0
  6  7  1  0
  7  8  2  0
  8  9  1  0
  9 10  2  0
 10 11  1  0
 11 12  2  0
 12 13  1  0
 13 14  2  0
 14 15  1  0
 15 16  2  0
 16 17  1  0
 17 18  2  0
 18 19  1  0
 19 20  2  0
 20 21  1  0
 21 22  2  0
 22 23  1  0
 23 24  2  0
 24 25  1  0
 25 26  2  0
 26 27  1  0
 27 28  2  0
 28 29  1  0
 29 30  2  0
 30 31  1  0
 31 32  2  0
 32 33  1  0
 32  3  1  0
M  END
>  <Title>  (1176) 
idABTFgen8

$$$$

     RDKit          2D

 14 14  0  0  0  0  0  0  0  0999 V2000
    3.9271    0.0000    0.0000 C   0  0  0  0  0  0  0  0  0  0  0  0
    2.4271    0.0000    0.0000 C   0  0  0  0  0  0  0  0  0  0  0  0
    1.9635   -1.4266    0.0000 C   0  0  0  0  0  0  0  0  0  0  0  0
    0.7500   -2.3083    0.0000 C   0  0  0  0  0  0  0  0  0  0  0  0
   -0.7500   -2.3083    0.0000 C   0  0  0  0  0  0  0  0  0  0  0  0
   -1.9635   -1.4266    0.0000 C   0  0  0  0  0  0  0  0  0  0  0  0
   -2.4271    0.0000    0.0000 C   0  0  0  0  0  0  0  0  0  0  0  0
   -3.9271    0.0000    0.0000 C   0  0  0  0  0  0  0  0  0  0  0  0
   -1.9635    1.4266    0.0000 C   0  0  0  0  0  0  0  0  0  0  0  0
   -3.1771    2.3083    0.0000 O   0  0  0  0  0  0  0  0  0  0  0  0
   -0.7500    2.3083    0.0000 C   0  0  0  0  0  0  0  0  0  0  0  0
    0.7500    2.3083    0.0000 C   0  0  0  0  0  0  0  0  0  0  0  0
    1.9635    1.4266    0.0000 C   0  0  0  0  0  0  0  0  0  0  0  0
    3.1771    2.3083    0.0000 C   0  0  0  0  0  0  0  0  0  0  0  0
  1  2  1  0
  2  3  2  0
  3  4  1  0
  4  5  2  0
  5  6  1  0
  6  7  2  0
  7  8  1  0
  7  9  1  0
  9 10  1  0
  9 11  2  0
 11 12  1  0
 12 13  2  0
 13 14  1  0
 13  2  1  0
M  END
>  <Title>  (1177) 
idABTGgen8

$$$$

     RDKit          2D

 22 23  0  0  0  0  0  0  0  0999 V2000
    3.7500   -1.2990    0.0000 C   0  0  0  0  0  0  0  0  0  0  0  0
    3.0000    0.0000    0.0000 O   0  0  0  0  0  0  0  0  0  0  0  0
    1.5000    0.0000    0.0000 C   0  0  0  0  0  0  0  0  0  0  0  0
    0.7500   -1.2990    0.0000 C   0  0  0  0  0  0  0  0  0  0  0  0
   -0.7500   -1.2990    0.0000 C   0  0  0  0  0  0  0  0  0  0  0  0
   -1.5000    0.0000    0.0000 C   0  0  0  0  0  0  0  0  0  0  0  0
   -0.7500    1.2990    0.0000 C   0  0  0  0  0  0  0  0  0  0  0  0
    0.7500    1.2990    0.0000 C   0  0  0  0  0  0  0  0  0  0  0  0
    1.5000    2.5981    0.0000 N   0  0  0  0  0  0  0  0  0  0  0  0
    3.0000    2.5981    0.0000 C   0  0  0  0  0  0  0  0  0  0  0  0
    3.7500    3.8971    0.0000 C   0  0  0  0  0  0  0  0  0  0  0  0
    5.2500    3.8971    0.0000 C   0  0  0  0  0  0  0  0  0  0  0  0
    6.0000    5.1962    0.0000 O   0  0  0  0  0  0  0  0  0  0  0  0
    7.5000    5.1962    0.0000 C   0  0  0  0  0  0  0  0  0  0  0  0
    8.2500    6.4952    0.0000 C   0  0  0  0  0  0  0  0  0  0  0  0
    9.7500    6.4952    0.0000 C   0  0  0  0  0  0  0  0  0  0  0  0
   10.5000    5.1962    0.0000 C   0  0  0  0  0  0  0  0  0  0  0  0
   12.0000    5.1962    0.0000 C   0  0  0  0  0  0  0  0  0  0  0  0
   12.7500    6.4952    0.0000 C   0  0  0  0  0  0  0  0  0  0  0  0
   12.0000    7.7942    0.0000 C   0  0  0  0  0  0  0  0  0  0  0  0
   10.5000    7.7942    0.0000 C   0  0  0  0  0  0  0  0  0  0  0  0
    9.7500    9.0933    0.0000 C   0  0  0  0  0  0  0  0  0  0  0  0
  1  2  1  0
  2  3  1  0
  3  4  2  0
  4  5  1  0
  5  6  2  0
  6  7  1  0
  7  8  2  0
  8  9  1  0
  9 10  1  0
 10 11  1  0
 11 12  1  0
 12 13  1  0
 13 14  1  0
 14 15  1  0
 15 16  1  0
 16 17  2  0
 17 18  1  0
 18 19  2  0
 19 20  1  0
 20 21  2  0
 21 22  1  0
  8  3  1  0
 21 16  1  0
M  END
>  <Title>  (1178) 
idABTHgen8

$$$$

     RDKit          2D

 18 18  0  0  0  0  0  0  0  0999 V2000
    5.3444    0.0000    0.0000 C   0  0  0  0  0  0  0  0  0  0  0  0
    3.8444    0.0000    0.0000 C   0  0  0  0  0  0  0  0  0  0  0  0
    3.5517   -1.4712    0.0000 C   0  0  0  0  0  0  0  0  0  0  0  0
    2.7184   -2.7184    0.0000 C   0  0  0  0  0  0  0  0  0  0  0  0
    1.4712   -3.5517    0.0000 C   0  0  0  0  0  0  0  0  0  0  0  0
    2.0452   -4.9376    0.0000 F   0  0  0  0  0  0  0  0  0  0  0  0
   -0.0000   -3.8444    0.0000 C   0  0  0  0  0  0  0  0  0  0  0  0
   -1.4712   -3.5517    0.0000 C   0  0  0  0  0  0  0  0  0  0  0  0
   -2.7184   -2.7184    0.0000 C   0  0  0  0  0  0  0  0  0  0  0  0
   -3.5517   -1.4712    0.0000 C   0  0  0  0  0  0  0  0  0  0  0  0
   -3.8444    0.0000    0.0000 C   0  0  0  0  0  0  0  0  0  0  0  0
   -3.5517    1.4712    0.0000 C   0  0  0  0  0  0  0  0  0  0  0  0
   -2.7184    2.7184    0.0000 C   0  0  0  0  0  0  0  0  0  0  0  0
   -1.4712    3.5517    0.0000 C   0  0  0  0  0  0  0  0  0  0  0  0
    0.0000    3.8444    0.0000 C   0  0  0  0  0  0  0  0  0  0  0  0
    1.4712    3.5517    0.0000 C   0  0  0  0  0  0  0  0  0  0  0  0
    2.7184    2.7184    0.0000 C   0  0  0  0  0  0  0  0  0  0  0  0
    3.5517    1.4712    0.0000 C   0  0  0  0  0  0  0  0  0  0  0  0
  1  2  1  0
  2  3  2  0
  3  4  1  0
  4  5  2  0
  5  6  1  0
  5  7  1  0
  7  8  2  0
  8  9  1  0
  9 10  2  0
 10 11  1  0
 11 12  2  0
 12 13  1  0
 13 14  2  0
 14 15  1  0
 15 16  2  0
 16 17  1  0
 17 18  2  0
 18  2  1  0
M  END
>  <Title>  (1179) 
idABTIgen8

$$$$

     RDKit          2D

 18 19  0  0  0  0  0  0  0  0999 V2000
    5.2500   -3.8971    0.0000 C   0  0  0  0  0  0  0  0  0  0  0  0
    3.7500   -3.8971    0.0000 C   0  0  0  0  0  0  0  0  0  0  0  0
    3.0000   -2.5981    0.0000 N   0  0  0  0  0  0  0  0  0  0  0  0
    1.5000   -2.5981    0.0000 C   0  0  0  0  0  0  0  0  0  0  0  0
    0.7500   -1.2990    0.0000 C   0  0  0  0  0  0  0  0  0  0  0  0
    1.5000    0.0000    0.0000 C   0  0  0  0  0  0  0  0  0  0  0  0
    0.7500    1.2990    0.0000 C   0  0  0  0  0  0  0  0  0  0  0  0
   -0.7500    1.2990    0.0000 C   0  0  0  0  0  0  0  0  0  0  0  0
   -1.5000    0.0000    0.0000 C   0  0  0  0  0  0  0  0  0  0  0  0
   -0.7500   -1.2990    0.0000 C   0  0  0  0  0  0  0  0  0  0  0  0
   -1.5000   -2.5981    0.0000 C   0  0  0  0  0  0  0  0  0  0  0  0
    3.7500   -1.2990    0.0000 C   0  0  0  0  0  0  0  0  0  0  0  0
    3.0000    0.0000    0.0000 C   0  0  0  0  0  0  0  0  0  0  0  0
    3.7500    1.2990    0.0000 C   0  0  0  0  0  0  0  0  0  0  0  0
    5.2500    1.2990    0.0000 C   0  0  0  0  0  0  0  0  0  0  0  0
    6.0000   -0.0000    0.0000 C   0  0  0  0  0  0  0  0  0  0  0  0
    5.2500   -1.2990    0.0000 C   0  0  0  0  0  0  0  0  0  0  0  0
    6.0000   -2.5981    0.0000 N   0  0  0  0  0  0  0  0  0  0  0  0
  1  2  1  0
  2  3  1  0
  3  4  1  0
  4  5  1  0
  5  6  2  0
  6  7  1  0
  7  8  2  0
  8  9  1  0
  9 10  2  0
 10 11  1  0
  3 12  1  0
 12 13  2  0
 13 14  1  0
 14 15  2  0
 15 16  1  0
 16 17  2  0
 17 18  1  0
 10  5  1  0
 17 12  1  0
M  END
>  <Title>  (1180) 
idABTJgen8

$$$$

     RDKit          2D

 27 28  0  0  0  0  0  0  0  0999 V2000
    4.6887    4.0970    0.0000 C   0  0  0  0  0  0  0  0  0  0  0  0
    3.2559    4.5410    0.0000 C   0  0  0  0  0  0  0  0  0  0  0  0
    2.6210    3.1820    0.0000 C   0  0  0  0  0  0  0  0  0  0  0  0
    1.6429    2.0448    0.0000 C   0  0  0  0  0  0  0  0  0  0  0  0
    0.3943    1.2135    0.0000 C   0  0  0  0  0  0  0  0  0  0  0  0
    1.2760    0.0000    0.0000 C   0  0  0  0  0  0  0  0  0  0  0  0
    0.3943   -1.2135    0.0000 C   0  0  0  0  0  0  0  0  0  0  0  0
   -1.0323   -0.7500    0.0000 C   0  0  0  0  0  0  0  0  0  0  0  0
   -1.0323    0.7500    0.0000 C   0  0  0  0  0  0  0  0  0  0  0  0
   -2.5310    0.6886    0.0000 C   0  0  0  0  0  0  0  0  0  0  0  0
   -3.9908    1.0337    0.0000 C   0  0  0  0  0  0  0  0  0  0  0  0
   -5.3033    1.7600    0.0000 C   0  0  0  0  0  0  0  0  0  0  0  0
   -6.3711    2.8133    0.0000 C   0  0  0  0  0  0  0  0  0  0  0  0
   -7.1152    4.1158    0.0000 C   0  0  0  0  0  0  0  0  0  0  0  0
   -7.4803    5.5707    0.0000 C   0  0  0  0  0  0  0  0  0  0  0  0
   -7.4393    7.0701    0.0000 C   0  0  0  0  0  0  0  0  0  0  0  0
   -6.9953    8.5029    0.0000 C   0  0  0  0  0  0  0  0  0  0  0  0
   -6.1812    9.7628    0.0000 C   0  0  0  0  0  0  0  0  0  0  0  0
   -5.0574   10.7563    0.0000 C   0  0  0  0  0  0  0  0  0  0  0  0
   -3.7072   11.4097    0.0000 C   0  0  0  0  0  0  0  0  0  0  0  0
   -2.2308   11.6747    0.0000 C   0  0  0  0  0  0  0  0  0  0  0  0
   -0.7377   11.5315    0.0000 C   0  0  0  0  0  0  0  0  0  0  0  0
    0.6615   10.9907    0.0000 C   0  0  0  0  0  0  0  0  0  0  0  0
    1.8628   10.0926    0.0000 C   0  0  0  0  0  0  0  0  0  0  0  0
    2.7773    8.9036    0.0000 C   0  0  0  0  0  0  0  0  0  0  0  0
    3.3371    7.5120    0.0000 C   0  0  0  0  0  0  0  0  0  0  0  0
    3.5007    6.0209    0.0000 C   0  0  0  0  0  0  0  0  0  0  0  0
  1  2  1  0
  2  3  2  0
  3  4  1  0
  4  5  2  0
  5  6  1  0
  6  7  2  0
  7  8  1  0
  8  9  2  0
  9 10  1  0
 10 11  1  0
 11 12  1  0
 12 13  2  0
 13 14  1  0
 14 15  2  0
 15 16  1  0
 16 17  2  0
 17 18  1  0
 18 19  2  0
 19 20  1  0
 20 21  2  0
 21 22  1  0
 22 23  2  0
 23 24  1  0
 24 25  2  0
 25 26  1  0
 26 27  2  0
 27  2  1  0
  9  5  1  0
M  END
>  <Title>  (1181) 
idABTKgen8

$$$$

     RDKit          2D

 31 35  0  0  0  0  0  0  0  0999 V2000
    3.0000    0.0000    0.0000 C   0  0  0  0  0  0  0  0  0  0  0  0
    1.5000    0.0000    0.0000 C   0  0  0  0  0  0  0  0  0  0  0  0
    0.7500   -1.2990    0.0000 C   0  0  0  0  0  0  0  0  0  0  0  0
   -0.7500   -1.2990    0.0000 C   0  0  0  0  0  0  0  0  0  0  0  0
   -1.5000    0.0000    0.0000 C   0  0  0  0  0  0  0  0  0  0  0  0
   -3.0000    0.0000    0.0000 C   0  0  0  0  0  0  0  0  0  0  0  0
   -3.8817   -1.2135    0.0000 N   0  0  0  0  0  0  0  0  0  0  0  0
   -5.3083   -0.7500    0.0000 N   0  0  0  0  0  0  0  0  0  0  0  0
   -5.3083    0.7500    0.0000 N   0  0  0  0  0  0  0  0  0  0  0  0
   -3.8817    1.2135    0.0000 N   0  0  0  0  0  0  0  0  0  0  0  0
   -3.4182    2.6401    0.0000 C   0  0  0  0  0  0  0  0  0  0  0  0
   -1.9509    2.9520    0.0000 C   0  0  0  0  0  0  0  0  0  0  0  0
   -1.4874    4.3786    0.0000 C   0  0  0  0  0  0  0  0  0  0  0  0
   -2.4911    5.4933    0.0000 C   0  0  0  0  0  0  0  0  0  0  0  0
   -2.0276    6.9199    0.0000 C   0  0  0  0  0  0  0  0  0  0  0  0
   -3.0313    8.0346    0.0000 C   0  0  0  0  0  0  0  0  0  0  0  0
   -2.5677    9.4612    0.0000 C   0  0  0  0  0  0  0  0  0  0  0  0
   -1.1005    9.7730    0.0000 C   0  0  0  0  0  0  0  0  0  0  0  0
   -0.0968    8.6583    0.0000 C   0  0  0  0  0  0  0  0  0  0  0  0
   -0.5604    7.2317    0.0000 C   0  0  0  0  0  0  0  0  0  0  0  0
    0.4433    6.1170    0.0000 C   0  0  0  0  0  0  0  0  0  0  0  0
    1.9106    6.4289    0.0000 C   0  0  0  0  0  0  0  0  0  0  0  0
    2.9143    5.3142    0.0000 C   0  0  0  0  0  0  0  0  0  0  0  0
    2.4507    3.8876    0.0000 C   0  0  0  0  0  0  0  0  0  0  0  0
    0.9835    3.5757    0.0000 C   0  0  0  0  0  0  0  0  0  0  0  0
   -0.0202    4.6904    0.0000 C   0  0  0  0  0  0  0  0  0  0  0  0
   -3.9583    5.1814    0.0000 C   0  0  0  0  0  0  0  0  0  0  0  0
   -4.9620    6.2961    0.0000 O   0  0  0  0  0  0  0  0  0  0  0  0
   -4.4218    3.7548    0.0000 N   0  0  0  0  0  0  0  0  0  0  0  0
   -0.7500    1.2990    0.0000 C   0  0  0  0  0  0  0  0  0  0  0  0
    0.7500    1.2990    0.0000 C   0  0  0  0  0  0  0  0  0  0  0  0
  1  2  1  0
  2  3  2  0
  3  4  1  0
  4  5  2  0
  5  6  1  0
  6  7  2  0
  7  8  1  0
  8  9  2  0
  9 10  1  0
 10 11  1  0
 11 12  2  0
 12 13  1  0
 13 14  2  0
 14 15  1  0
 15 16  2  0
 16 17  1  0
 17 18  2  0
 18 19  1  0
 19 20  2  0
 20 21  1  0
 21 22  2  0
 22 23  1  0
 23 24  2  0
 24 25  1  0
 25 26  2  0
 14 27  1  0
 27 28  2  0
 27 29  1  0
  5 30  1  0
 30 31  2  0
 31  2  1  0
 10  6  1  0
 29 11  1  0
 20 15  1  0
 26 21  1  0
M  END
>  <Title>  (1182) 
idABTLgen8

$$$$

     RDKit          2D

 58 64  0  0  0  0  0  0  0  0999 V2000
   -5.2496   18.6120    0.0000 C   0  0  0  0  0  0  0  0  0  0  0  0
   -5.3281   17.1140    0.0000 C   0  0  0  0  0  0  0  0  0  0  0  0
   -4.0701   16.2971    0.0000 O   0  0  0  0  0  0  0  0  0  0  0  0
   -6.6646   16.4330    0.0000 N   0  0  0  0  0  0  0  0  0  0  0  0
   -6.7431   14.9351    0.0000 C   0  0  0  0  0  0  0  0  0  0  0  0
   -8.2246   14.7004    0.0000 C   0  0  0  0  0  0  0  0  0  0  0  0
   -9.4826   13.8835    0.0000 C   0  0  0  0  0  0  0  0  0  0  0  0
  -10.2996   12.6255    0.0000 C   0  0  0  0  0  0  0  0  0  0  0  0
  -10.5342   11.1440    0.0000 C   0  0  0  0  0  0  0  0  0  0  0  0
  -10.1460    9.6951    0.0000 C   0  0  0  0  0  0  0  0  0  0  0  0
   -9.2020    8.5293    0.0000 C   0  0  0  0  0  0  0  0  0  0  0  0
   -7.8655    7.8484    0.0000 C   0  0  0  0  0  0  0  0  0  0  0  0
   -6.3676    7.7699    0.0000 C   0  0  0  0  0  0  0  0  0  0  0  0
   -4.9672    8.3074    0.0000 C   0  0  0  0  0  0  0  0  0  0  0  0
   -3.9065    9.3681    0.0000 C   0  0  0  0  0  0  0  0  0  0  0  0
   -3.3690   10.7684    0.0000 C   0  0  0  0  0  0  0  0  0  0  0  0
   -1.8875   10.5338    0.0000 C   0  0  0  0  0  0  0  0  0  0  0  0
   -0.9435   11.6995    0.0000 O   0  0  0  0  0  0  0  0  0  0  0  0
   -1.3499    9.1334    0.0000 N   0  0  0  0  0  0  0  0  0  0  0  0
    0.1316    8.8988    0.0000 C   0  0  0  0  0  0  0  0  0  0  0  0
    1.1923    9.9594    0.0000 N   0  0  0  0  0  0  0  0  0  0  0  0
    2.5288    9.2784    0.0000 N   0  0  0  0  0  0  0  0  0  0  0  0
    2.2941    7.7969    0.0000 N   0  0  0  0  0  0  0  0  0  0  0  0
    0.8126    7.5623    0.0000 N   0  0  0  0  0  0  0  0  0  0  0  0
    0.1316    6.2257    0.0000 C   0  0  0  0  0  0  0  0  0  0  0  0
    1.2463    5.2220    0.0000 C   0  0  0  0  0  0  0  0  0  0  0  0
    1.7099    3.7955    0.0000 C   0  0  0  0  0  0  0  0  0  0  0  0
    1.3980    2.3282    0.0000 C   0  0  0  0  0  0  0  0  0  0  0  0
    0.3943    1.2135    0.0000 C   0  0  0  0  0  0  0  0  0  0  0  0
    1.2760    0.0000    0.0000 C   0  0  0  0  0  0  0  0  0  0  0  0
    0.3943   -1.2135    0.0000 N   0  0  0  0  0  0  0  0  0  0  0  0
   -1.0323   -0.7500    0.0000 N   0  0  0  0  0  0  0  0  0  0  0  0
   -1.0323    0.7500    0.0000 N   0  0  0  0  0  0  0  0  0  0  0  0
   -2.4995    1.0619    0.0000 C   0  0  0  0  0  0  0  0  0  0  0  0
   -3.6142    2.0656    0.0000 C   0  0  0  0  0  0  0  0  0  0  0  0
   -4.0778    3.4921    0.0000 C   0  0  0  0  0  0  0  0  0  0  0  0
   -3.7659    4.9594    0.0000 C   0  0  0  0  0  0  0  0  0  0  0  0
   -5.1024    5.6404    0.0000 C   0  0  0  0  0  0  0  0  0  0  0  0
   -6.3604    4.8234    0.0000 O   0  0  0  0  0  0  0  0  0  0  0  0
   -5.1809    7.1383    0.0000 N   0  0  0  0  0  0  0  0  0  0  0  0
   -3.9229    7.9553    0.0000 O   0  0  0  0  0  0  0  0  0  0  0  0
   -2.7622    6.0741    0.0000 N   0  0  0  0  0  0  0  0  0  0  0  0
   -1.3356    6.5376    0.0000 C   0  0  0  0  0  0  0  0  0  0  0  0
   -1.4141    8.0356    0.0000 O   0  0  0  0  0  0  0  0  0  0  0  0
   -1.9420    2.7807    0.0000 C   0  0  0  0  0  0  0  0  0  0  0  0
   -0.8719    3.1318    0.0000 N   0  0  0  0  0  0  0  0  0  0  0  0
   -1.2124    3.0553    0.0000 N   0  0  0  0  0  0  0  0  0  0  0  0
   -0.1231    3.4093    0.0000 N   0  0  0  0  0  0  0  0  0  0  0  0
   -0.4435    3.2710    0.0000 N   0  0  0  0  0  0  0  0  0  0  0  0
    0.6286    3.6159    0.0000 C   0  0  0  0  0  0  0  0  0  0  0  0
   -0.8578    3.8173    0.0000 C   0  0  0  0  0  0  0  0  0  0  0  0
   -1.3213    5.2439    0.0000 O   0  0  0  0  0  0  0  0  0  0  0  0
   -3.4475   12.2664    0.0000 C   0  0  0  0  0  0  0  0  0  0  0  0
   -1.9660   12.5010    0.0000 N   0  0  0  0  0  0  0  0  0  0  0  0
   -1.7313   13.9826    0.0000 N   0  0  0  0  0  0  0  0  0  0  0  0
   -3.0678   14.6636    0.0000 N   0  0  0  0  0  0  0  0  0  0  0  0
   -4.1285   13.6029    0.0000 N   0  0  0  0  0  0  0  0  0  0  0  0
   -5.2942   14.5469    0.0000 C   0  0  0  0  0  0  0  0  0  0  0  0
  1  2  1  0
  2  3  2  0
  2  4  1  0
  4  5  1  0
  5  6  2  0
  6  7  1  0
  7  8  2  0
  8  9  1  0
  9 10  2  0
 10 11  1  0
 11 12  2  0
 12 13  1  0
 13 14  2  0
 14 15  1  0
 15 16  2  0
 16 17  1  0
 17 18  2  0
 17 19  1  0
 19 20  1  0
 20 21  2  0
 21 22  1  0
 22 23  2  0
 23 24  1  0
 24 25  1  0
 25 26  2  0
 26 27  1  0
 27 28  2  0
 28 29  1  0
 29 30  2  0
 30 31  1  0
 31 32  2  0
 32 33  1  0
 33 34  1  0
 34 35  2  0
 35 36  1  0
 36 37  2  0
 37 38  1  0
 38 39  2  0
 38 40  1  0
 40 41  1  0
 37 42  1  0
 42 43  1  0
 43 44  2  0
 34 45  1  0
 45 46  2  0
 46 47  1  0
 47 48  2  0
 48 49  1  0
 49 50  2  0
 50 51  1  0
 51 52  2  0
 16 53  1  0
 53 54  2  0
 54 55  1  0
 55 56  2  0
 56 57  1  0
 57 58  1  0
 58  5  1  0
 24 20  1  0
 43 25  1  0
 51 45  1  0
 57 53  1  0
 50 28  1  0
 33 29  1  0
M  END
>  <Title>  (1183) 
idABTMgen8

$$$$

     RDKit          2D

 43 49  0  0  0  0  0  0  0  0999 V2000
   11.6898   -0.3312    0.0000 C   0  0  0  0  0  0  0  0  0  0  0  0
   10.2226   -0.6430    0.0000 C   0  0  0  0  0  0  0  0  0  0  0  0
    9.6124   -2.0133    0.0000 C   0  0  0  0  0  0  0  0  0  0  0  0
    8.1207   -1.8566    0.0000 C   0  0  0  0  0  0  0  0  0  0  0  0
    7.8088   -0.3893    0.0000 C   0  0  0  0  0  0  0  0  0  0  0  0
    6.4385    0.2208    0.0000 N   0  0  0  0  0  0  0  0  0  0  0  0
    6.1266    1.6880    0.0000 N   0  0  0  0  0  0  0  0  0  0  0  0
    4.6348    1.8448    0.0000 N   0  0  0  0  0  0  0  0  0  0  0  0
    4.0247    0.4745    0.0000 C   0  0  0  0  0  0  0  0  0  0  0  0
    5.1394   -0.5292    0.0000 C   0  0  0  0  0  0  0  0  0  0  0  0
    4.9826   -2.0210    0.0000 C   0  0  0  0  0  0  0  0  0  0  0  0
    6.0974   -3.0247    0.0000 C   0  0  0  0  0  0  0  0  0  0  0  0
    5.4873   -4.3950    0.0000 C   0  0  0  0  0  0  0  0  0  0  0  0
    3.9955   -4.2382    0.0000 C   0  0  0  0  0  0  0  0  0  0  0  0
    2.9918   -5.3529    0.0000 N   0  0  0  0  0  0  0  0  0  0  0  0
    3.3037   -6.8202    0.0000 N   0  0  0  0  0  0  0  0  0  0  0  0
    2.0046   -7.5702    0.0000 N   0  0  0  0  0  0  0  0  0  0  0  0
    0.8899   -6.5665    0.0000 N   0  0  0  0  0  0  0  0  0  0  0  0
    1.5000   -5.1962    0.0000 C   0  0  0  0  0  0  0  0  0  0  0  0
    0.7500   -3.8971    0.0000 N   0  0  0  0  0  0  0  0  0  0  0  0
   -0.7500   -3.8971    0.0000 C   0  0  0  0  0  0  0  0  0  0  0  0
   -1.5000   -2.5981    0.0000 O   0  0  0  0  0  0  0  0  0  0  0  0
   -1.5000   -5.1962    0.0000 C   0  0  0  0  0  0  0  0  0  0  0  0
   -0.7500   -6.4952    0.0000 C   0  0  0  0  0  0  0  0  0  0  0  0
   -1.5000   -7.7942    0.0000 C   0  0  0  0  0  0  0  0  0  0  0  0
   -3.0000   -7.7942    0.0000 C   0  0  0  0  0  0  0  0  0  0  0  0
   -3.7500   -9.0933    0.0000 C   0  0  0  0  0  0  0  0  0  0  0  0
   -3.7500   -6.4952    0.0000 O   0  0  0  0  0  0  0  0  0  0  0  0
   -3.0000   -5.1962    0.0000 C   0  0  0  0  0  0  0  0  0  0  0  0
   -3.7500   -3.8971    0.0000 O   0  0  0  0  0  0  0  0  0  0  0  0
    3.6836   -2.7710    0.0000 N   0  0  0  0  0  0  0  0  0  0  0  0
    2.3133   -2.1609    0.0000 C   0  0  0  0  0  0  0  0  0  0  0  0
    1.0143   -2.9109    0.0000 N   0  0  0  0  0  0  0  0  0  0  0  0
   -0.1005   -1.9072    0.0000 N   0  0  0  0  0  0  0  0  0  0  0  0
    0.5096   -0.5369    0.0000 N   0  0  0  0  0  0  0  0  0  0  0  0
    2.0014   -0.6937    0.0000 N   0  0  0  0  0  0  0  0  0  0  0  0
    3.0051    0.4210    0.0000 C   0  0  0  0  0  0  0  0  0  0  0  0
    4.4723    0.1092    0.0000 C   0  0  0  0  0  0  0  0  0  0  0  0
    5.4760    1.2239    0.0000 C   0  0  0  0  0  0  0  0  0  0  0  0
    5.0125    2.6505    0.0000 C   0  0  0  0  0  0  0  0  0  0  0  0
    3.5453    2.9623    0.0000 C   0  0  0  0  0  0  0  0  0  0  0  0
    2.5416    1.8476    0.0000 C   0  0  0  0  0  0  0  0  0  0  0  0
    9.1078    0.3607    0.0000 N   0  0  0  0  0  0  0  0  0  0  0  0
  1  2  1  0
  2  3  2  0
  3  4  1  0
  4  5  2  0
  5  6  1  0
  6  7  1  0
  7  8  2  0
  8  9  1  0
  9 10  2  0
 10 11  1  0
 11 12  2  0
 12 13  1  0
 13 14  2  0
 14 15  1  0
 15 16  1  0
 16 17  2  0
 17 18  1  0
 18 19  2  0
 19 20  1  0
 20 21  1  0
 21 22  2  0
 21 23  1  0
 23 24  2  0
 24 25  1  0
 25 26  2  0
 26 27  1  0
 26 28  1  0
 28 29  1  0
 29 30  2  0
 14 31  1  0
 31 32  1  0
 32 33  2  0
 33 34  1  0
 34 35  2  0
 35 36  1  0
 36 37  1  0
 37 38  2  0
 38 39  1  0
 39 40  2  0
 40 41  1  0
 41 42  2  0
  5 43  1  0
 43  2  1  0
 10  6  1  0
 31 11  1  0
 36 32  1  0
 42 37  1  0
 19 15  1  0
 29 23  1  0
M  END
>  <Title>  (1184) 
idABTNgen8

$$$$

     RDKit          2D

 26 26  0  0  0  0  0  0  0  0999 V2000
    7.9960   -1.2990    0.0000 C   0  0  0  0  0  0  0  0  0  0  0  0
    7.2460    0.0000    0.0000 O   0  0  0  0  0  0  0  0  0  0  0  0
    5.7460    0.0000    0.0000 C   0  0  0  0  0  0  0  0  0  0  0  0
    5.5502   -1.4872    0.0000 C   0  0  0  0  0  0  0  0  0  0  0  0
    4.9762   -2.8730    0.0000 C   0  0  0  0  0  0  0  0  0  0  0  0
    4.0630   -4.0630    0.0000 C   0  0  0  0  0  0  0  0  0  0  0  0
    2.8730   -4.9762    0.0000 C   0  0  0  0  0  0  0  0  0  0  0  0
    1.4872   -5.5502    0.0000 C   0  0  0  0  0  0  0  0  0  0  0  0
   -0.0000   -5.7460    0.0000 C   0  0  0  0  0  0  0  0  0  0  0  0
   -1.4872   -5.5502    0.0000 C   0  0  0  0  0  0  0  0  0  0  0  0
   -2.8730   -4.9762    0.0000 C   0  0  0  0  0  0  0  0  0  0  0  0
   -4.0630   -4.0630    0.0000 C   0  0  0  0  0  0  0  0  0  0  0  0
   -4.9762   -2.8730    0.0000 C   0  0  0  0  0  0  0  0  0  0  0  0
   -5.5502   -1.4872    0.0000 C   0  0  0  0  0  0  0  0  0  0  0  0
   -5.7460    0.0000    0.0000 C   0  0  0  0  0  0  0  0  0  0  0  0
   -5.5502    1.4872    0.0000 C   0  0  0  0  0  0  0  0  0  0  0  0
   -4.9762    2.8730    0.0000 C   0  0  0  0  0  0  0  0  0  0  0  0
   -4.0630    4.0630    0.0000 C   0  0  0  0  0  0  0  0  0  0  0  0
   -2.8730    4.9762    0.0000 C   0  0  0  0  0  0  0  0  0  0  0  0
   -1.4872    5.5502    0.0000 C   0  0  0  0  0  0  0  0  0  0  0  0
    0.0000    5.7460    0.0000 C   0  0  0  0  0  0  0  0  0  0  0  0
    1.4872    5.5502    0.0000 C   0  0  0  0  0  0  0  0  0  0  0  0
    2.8730    4.9762    0.0000 C   0  0  0  0  0  0  0  0  0  0  0  0
    4.0630    4.0630    0.0000 C   0  0  0  0  0  0  0  0  0  0  0  0
    4.9762    2.8730    0.0000 C   0  0  0  0  0  0  0  0  0  0  0  0
    5.5502    1.4872    0.0000 C   0  0  0  0  0  0  0  0  0  0  0  0
  1  2  1  0
  2  3  1  0
  3  4  2  0
  4  5  1  0
  5  6  2  0
  6  7  1  0
  7  8  2  0
  8  9  1  0
  9 10  2  0
 10 11  1  0
 11 12  2  0
 12 13  1  0
 13 14  2  0
 14 15  1  0
 15 16  2  0
 16 17  1  0
 17 18  2  0
 18 19  1  0
 19 20  2  0
 20 21  1  0
 21 22  2  0
 22 23  1  0
 23 24  2  0
 24 25  1  0
 25 26  2  0
 26  3  1  0
M  END
>  <Title>  (1185) 
idABTOgen8

$$$$

     RDKit          2D

 13 13  0  0  0  0  0  0  0  0999 V2000
    5.7098   -1.2990    0.0000 C   0  0  0  0  0  0  0  0  0  0  0  0
    4.2098   -1.2990    0.0000 C   0  0  0  0  0  0  0  0  0  0  0  0
    3.4598   -2.5981    0.0000 O   0  0  0  0  0  0  0  0  0  0  0  0
    3.4598   -0.0000    0.0000 O   0  0  0  0  0  0  0  0  0  0  0  0
    1.9598    0.0000    0.0000 C   0  0  0  0  0  0  0  0  0  0  0  0
    1.3858   -1.3858    0.0000 C   0  0  0  0  0  0  0  0  0  0  0  0
   -0.0000   -1.9598    0.0000 C   0  0  0  0  0  0  0  0  0  0  0  0
   -1.3858   -1.3858    0.0000 C   0  0  0  0  0  0  0  0  0  0  0  0
   -1.9598    0.0000    0.0000 C   0  0  0  0  0  0  0  0  0  0  0  0
   -1.3858    1.3858    0.0000 C   0  0  0  0  0  0  0  0  0  0  0  0
   -2.4465    2.4465    0.0000 F   0  0  0  0  0  0  0  0  0  0  0  0
    0.0000    1.9598    0.0000 C   0  0  0  0  0  0  0  0  0  0  0  0
    1.3858    1.3858    0.0000 C   0  0  0  0  0  0  0  0  0  0  0  0
  1  2  1  0
  2  3  2  0
  2  4  1  0
  4  5  1  0
  5  6  2  0
  6  7  1  0
  7  8  2  0
  8  9  1  0
  9 10  2  0
 10 11  1  0
 10 12  1  0
 12 13  2  0
 13  5  1  0
M  END
>  <Title>  (1186) 
idABTPgen8

$$$$

     RDKit          2D

 25 27  0  0  0  0  0  0  0  0999 V2000
    2.6733    7.2283    0.0000 C   0  0  0  0  0  0  0  0  0  0  0  0
    3.4233    5.9293    0.0000 O   0  0  0  0  0  0  0  0  0  0  0  0
    2.6733    4.6303    0.0000 C   0  0  0  0  0  0  0  0  0  0  0  0
    1.1775    4.7424    0.0000 C   0  0  0  0  0  0  0  0  0  0  0  0
    0.1572    3.6428    0.0000 C   0  0  0  0  0  0  0  0  0  0  0  0
    0.3808    2.1595    0.0000 C   0  0  0  0  0  0  0  0  0  0  0  0
    1.6798    1.4095    0.0000 C   0  0  0  0  0  0  0  0  0  0  0  0
    2.1929    0.0000    0.0000 C   0  0  0  0  0  0  0  0  0  0  0  0
    1.6798   -1.4095    0.0000 C   0  0  0  0  0  0  0  0  0  0  0  0
    0.3808   -2.1595    0.0000 C   0  0  0  0  0  0  0  0  0  0  0  0
   -1.0964   -1.8991    0.0000 C   0  0  0  0  0  0  0  0  0  0  0  0
   -2.0606   -0.7500    0.0000 C   0  0  0  0  0  0  0  0  0  0  0  0
   -2.0606    0.7500    0.0000 C   0  0  0  0  0  0  0  0  0  0  0  0
   -1.0964    1.8991    0.0000 C   0  0  0  0  0  0  0  0  0  0  0  0
   -1.8464    3.1981    0.0000 C   0  0  0  0  0  0  0  0  0  0  0  0
   -1.0964    4.4971    0.0000 C   0  0  0  0  0  0  0  0  0  0  0  0
   -1.8464    5.7962    0.0000 C   0  0  0  0  0  0  0  0  0  0  0  0
   -3.3464    5.7962    0.0000 C   0  0  0  0  0  0  0  0  0  0  0  0
   -4.0964    7.0952    0.0000 C   0  0  0  0  0  0  0  0  0  0  0  0
   -4.0964    4.4971    0.0000 C   0  0  0  0  0  0  0  0  0  0  0  0
   -5.5964    4.4971    0.0000 O   0  0  0  0  0  0  0  0  0  0  0  0
   -3.3464    3.1981    0.0000 N   0  0  0  0  0  0  0  0  0  0  0  0
    3.0761    1.9576    0.0000 N   0  0  0  0  0  0  0  0  0  0  0  0
    3.5183    3.3909    0.0000 C   0  0  0  0  0  0  0  0  0  0  0  0
    5.0015    3.6145    0.0000 C   0  0  0  0  0  0  0  0  0  0  0  0
  1  2  1  0
  2  3  1  0
  3  4  2  0
  4  5  1  0
  5  6  2  0
  6  7  1  0
  7  8  2  0
  8  9  1  0
  9 10  2  0
 10 11  1  0
 11 12  2  0
 12 13  1  0
 13 14  2  0
 14 15  1  0
 15 16  2  0
 16 17  1  0
 17 18  2  0
 18 19  1  0
 18 20  1  0
 20 21  2  0
 20 22  1  0
  7 23  1  0
 23 24  2  0
 24 25  1  0
 24  3  1  0
 14  6  1  0
 22 15  1  0
M  END
>  <Title>  (1187) 
idABTQgen8

$$$$

     RDKit          2D

 31 31  0  0  0  0  0  0  0  0999 V2000
    8.6751   -0.0000    0.0000 C   0  0  0  0  0  0  0  0  0  0  0  0
    7.1751    0.0000    0.0000 C   0  0  0  0  0  0  0  0  0  0  0  0
    7.0183   -1.4918    0.0000 C   0  0  0  0  0  0  0  0  0  0  0  0
    6.5548   -2.9184    0.0000 C   0  0  0  0  0  0  0  0  0  0  0  0
    5.8048   -4.2174    0.0000 C   0  0  0  0  0  0  0  0  0  0  0  0
    4.8011   -5.3321    0.0000 C   0  0  0  0  0  0  0  0  0  0  0  0
    3.5875   -6.2138    0.0000 C   0  0  0  0  0  0  0  0  0  0  0  0
    2.2172   -6.8239    0.0000 C   0  0  0  0  0  0  0  0  0  0  0  0
    0.7500   -7.1358    0.0000 C   0  0  0  0  0  0  0  0  0  0  0  0
   -0.7500   -7.1358    0.0000 C   0  0  0  0  0  0  0  0  0  0  0  0
   -2.2172   -6.8239    0.0000 C   0  0  0  0  0  0  0  0  0  0  0  0
   -3.5875   -6.2138    0.0000 C   0  0  0  0  0  0  0  0  0  0  0  0
   -4.8011   -5.3321    0.0000 C   0  0  0  0  0  0  0  0  0  0  0  0
   -5.8048   -4.2174    0.0000 C   0  0  0  0  0  0  0  0  0  0  0  0
   -6.5548   -2.9184    0.0000 C   0  0  0  0  0  0  0  0  0  0  0  0
   -7.0183   -1.4918    0.0000 C   0  0  0  0  0  0  0  0  0  0  0  0
   -7.1751    0.0000    0.0000 C   0  0  0  0  0  0  0  0  0  0  0  0
   -7.0183    1.4918    0.0000 C   0  0  0  0  0  0  0  0  0  0  0  0
   -6.5548    2.9184    0.0000 C   0  0  0  0  0  0  0  0  0  0  0  0
   -5.8048    4.2174    0.0000 C   0  0  0  0  0  0  0  0  0  0  0  0
   -4.8011    5.3321    0.0000 C   0  0  0  0  0  0  0  0  0  0  0  0
   -3.5875    6.2138    0.0000 C   0  0  0  0  0  0  0  0  0  0  0  0
   -2.2172    6.8239    0.0000 C   0  0  0  0  0  0  0  0  0  0  0  0
   -0.7500    7.1358    0.0000 C   0  0  0  0  0  0  0  0  0  0  0  0
    0.7500    7.1358    0.0000 C   0  0  0  0  0  0  0  0  0  0  0  0
    2.2172    6.8239    0.0000 C   0  0  0  0  0  0  0  0  0  0  0  0
    3.5875    6.2138    0.0000 C   0  0  0  0  0  0  0  0  0  0  0  0
    4.8011    5.3321    0.0000 C   0  0  0  0  0  0  0  0  0  0  0  0
    5.8048    4.2174    0.0000 C   0  0  0  0  0  0  0  0  0  0  0  0
    6.5548    2.9184    0.0000 C   0  0  0  0  0  0  0  0  0  0  0  0
    7.0183    1.4918    0.0000 C   0  0  0  0  0  0  0  0  0  0  0  0
  1  2  1  0
  2  3  2  0
  3  4  1  0
  4  5  2  0
  5  6  1  0
  6  7  2  0
  7  8  1  0
  8  9  2  0
  9 10  1  0
 10 11  2  0
 11 12  1  0
 12 13  2  0
 13 14  1  0
 14 15  2  0
 15 16  1  0
 16 17  2  0
 17 18  1  0
 18 19  2  0
 19 20  1  0
 20 21  2  0
 21 22  1  0
 22 23  2  0
 23 24  1  0
 24 25  2  0
 25 26  1  0
 26 27  2  0
 27 28  1  0
 28 29  2  0
 29 30  1  0
 30 31  2  0
 31  2  1  0
M  END
>  <Title>  (1188) 
idABTRgen8

$$$$

     RDKit          2D

 34 38  0  0  0  0  0  0  0  0999 V2000
    4.2098   -1.2990    0.0000 C   0  0  0  0  0  0  0  0  0  0  0  0
    3.4598   -0.0000    0.0000 O   0  0  0  0  0  0  0  0  0  0  0  0
    1.9598    0.0000    0.0000 C   0  0  0  0  0  0  0  0  0  0  0  0
    1.3858   -1.3858    0.0000 C   0  0  0  0  0  0  0  0  0  0  0  0
   -0.0000   -1.9598    0.0000 C   0  0  0  0  0  0  0  0  0  0  0  0
   -1.3858   -1.3858    0.0000 C   0  0  0  0  0  0  0  0  0  0  0  0
   -1.9598    0.0000    0.0000 C   0  0  0  0  0  0  0  0  0  0  0  0
   -1.3858    1.3858    0.0000 C   0  0  0  0  0  0  0  0  0  0  0  0
   -2.4465    2.4465    0.0000 N   0  0  0  0  0  0  0  0  0  0  0  0
   -2.0583    3.8954    0.0000 N   0  0  0  0  0  0  0  0  0  0  0  0
   -3.1189    4.9560    0.0000 N   0  0  0  0  0  0  0  0  0  0  0  0
   -4.5678    4.5678    0.0000 N   0  0  0  0  0  0  0  0  0  0  0  0
   -4.9560    3.1189    0.0000 N   0  0  0  0  0  0  0  0  0  0  0  0
   -3.8954    2.0583    0.0000 N   0  0  0  0  0  0  0  0  0  0  0  0
   -4.2836    0.6094    0.0000 C   0  0  0  0  0  0  0  0  0  0  0  0
   -5.7325    0.2211    0.0000 C   0  0  0  0  0  0  0  0  0  0  0  0
   -6.1207   -1.2278    0.0000 C   0  0  0  0  0  0  0  0  0  0  0  0
   -5.0601   -2.2884    0.0000 C   0  0  0  0  0  0  0  0  0  0  0  0
   -5.4483   -3.7373    0.0000 C   0  0  0  0  0  0  0  0  0  0  0  0
   -6.8972   -4.1255    0.0000 C   0  0  0  0  0  0  0  0  0  0  0  0
   -7.2854   -5.5744    0.0000 C   0  0  0  0  0  0  0  0  0  0  0  0
   -6.2247   -6.6351    0.0000 C   0  0  0  0  0  0  0  0  0  0  0  0
   -4.7759   -6.2469    0.0000 C   0  0  0  0  0  0  0  0  0  0  0  0
   -4.3876   -4.7980    0.0000 C   0  0  0  0  0  0  0  0  0  0  0  0
   -2.9387   -4.4097    0.0000 C   0  0  0  0  0  0  0  0  0  0  0  0
   -1.8781   -5.4704    0.0000 C   0  0  0  0  0  0  0  0  0  0  0  0
   -0.4292   -5.0822    0.0000 C   0  0  0  0  0  0  0  0  0  0  0  0
   -0.0410   -3.6333    0.0000 C   0  0  0  0  0  0  0  0  0  0  0  0
   -1.1016   -2.5726    0.0000 C   0  0  0  0  0  0  0  0  0  0  0  0
   -2.5505   -2.9608    0.0000 C   0  0  0  0  0  0  0  0  0  0  0  0
   -3.6112   -1.9002    0.0000 C   0  0  0  0  0  0  0  0  0  0  0  0
   -3.2229   -0.4513    0.0000 C   0  0  0  0  0  0  0  0  0  0  0  0
    0.0000    1.9598    0.0000 C   0  0  0  0  0  0  0  0  0  0  0  0
    1.3858    1.3858    0.0000 C   0  0  0  0  0  0  0  0  0  0  0  0
  1  2  1  0
  2  3  1  0
  3  4  2  0
  4  5  1  0
  5  6  2  0
  6  7  1  0
  7  8  2  0
  8  9  1  0
  9 10  1  0
 10 11  2  0
 11 12  1  0
 12 13  2  0
 13 14  1  0
 14 15  1  0
 15 16  2  0
 16 17  1  0
 17 18  2  0
 18 19  1  0
 19 20  2  0
 20 21  1  0
 21 22  2  0
 22 23  1  0
 23 24  2  0
 24 25  1  0
 25 26  2  0
 26 27  1  0
 27 28  2  0
 28 29  1  0
 29 30  2  0
 18 31  1  0
 31 32  2  0
  8 33  1  0
 33 34  2  0
 34  3  1  0
 14  9  1  0
 32 15  1  0
 24 19  1  0
 30 25  1  0
M  END
>  <Title>  (1189) 
idABTSgen8

$$$$

     RDKit          2D

 38 43  0  0  0  0  0  0  0  0999 V2000
    3.9786   -1.2990    0.0000 C   0  0  0  0  0  0  0  0  0  0  0  0
    3.2286   -0.0000    0.0000 O   0  0  0  0  0  0  0  0  0  0  0  0
    1.7286    0.0000    0.0000 C   0  0  0  0  0  0  0  0  0  0  0  0
    1.0777    1.3515    0.0000 C   0  0  0  0  0  0  0  0  0  0  0  0
   -0.3846    1.6852    0.0000 C   0  0  0  0  0  0  0  0  0  0  0  0
   -1.5574    0.7500    0.0000 C   0  0  0  0  0  0  0  0  0  0  0  0
   -2.9088    1.4008    0.0000 C   0  0  0  0  0  0  0  0  0  0  0  0
   -4.2297    0.6900    0.0000 N   0  0  0  0  0  0  0  0  0  0  0  0
   -5.3139    1.7266    0.0000 N   0  0  0  0  0  0  0  0  0  0  0  0
   -4.6631    3.0781    0.0000 N   0  0  0  0  0  0  0  0  0  0  0  0
   -3.1767    2.8767    0.0000 N   0  0  0  0  0  0  0  0  0  0  0  0
   -2.1401    3.9609    0.0000 C   0  0  0  0  0  0  0  0  0  0  0  0
   -2.4079    5.4368    0.0000 C   0  0  0  0  0  0  0  0  0  0  0  0
   -1.0870    6.1476    0.0000 C   0  0  0  0  0  0  0  0  0  0  0  0
   -0.0028    5.1110    0.0000 C   0  0  0  0  0  0  0  0  0  0  0  0
    1.4731    5.3789    0.0000 C   0  0  0  0  0  0  0  0  0  0  0  0
    2.4430    4.2346    0.0000 C   0  0  0  0  0  0  0  0  0  0  0  0
    3.9189    4.5024    0.0000 C   0  0  0  0  0  0  0  0  0  0  0  0
    4.4248    5.9145    0.0000 C   0  0  0  0  0  0  0  0  0  0  0  0
    3.4549    7.0588    0.0000 C   0  0  0  0  0  0  0  0  0  0  0  0
    1.9791    6.7909    0.0000 C   0  0  0  0  0  0  0  0  0  0  0  0
    1.0092    7.9352    0.0000 N   0  0  0  0  0  0  0  0  0  0  0  0
   -0.4667    7.6673    0.0000 N   0  0  0  0  0  0  0  0  0  0  0  0
   -1.4366    8.8116    0.0000 N   0  0  0  0  0  0  0  0  0  0  0  0
   -0.9306   10.2237    0.0000 N   0  0  0  0  0  0  0  0  0  0  0  0
    0.5453   10.4915    0.0000 N   0  0  0  0  0  0  0  0  0  0  0  0
    1.5151    9.3473    0.0000 N   0  0  0  0  0  0  0  0  0  0  0  0
    2.9910    9.6151    0.0000 C   0  0  0  0  0  0  0  0  0  0  0  0
    3.4970   11.0272    0.0000 C   0  0  0  0  0  0  0  0  0  0  0  0
    4.9729   11.2950    0.0000 C   0  0  0  0  0  0  0  0  0  0  0  0
    5.9428   10.1508    0.0000 C   0  0  0  0  0  0  0  0  0  0  0  0
    5.4368    8.7387    0.0000 C   0  0  0  0  0  0  0  0  0  0  0  0
    3.9609    8.4708    0.0000 C   0  0  0  0  0  0  0  0  0  0  0  0
   -0.6537    3.7596    0.0000 C   0  0  0  0  0  0  0  0  0  0  0  0
    0.0571    2.4387    0.0000 O   0  0  0  0  0  0  0  0  0  0  0  0
   -1.5574   -0.7500    0.0000 N   0  0  0  0  0  0  0  0  0  0  0  0
   -0.3846   -1.6852    0.0000 C   0  0  0  0  0  0  0  0  0  0  0  0
    1.0777   -1.3515    0.0000 C   0  0  0  0  0  0  0  0  0  0  0  0
  1  2  1  0
  2  3  1  0
  3  4  2  0
  4  5  1  0
  5  6  2  0
  6  7  1  0
  7  8  2  0
  8  9  1  0
  9 10  2  0
 10 11  1  0
 11 12  1  0
 12 13  2  0
 13 14  1  0
 14 15  2  0
 15 16  1  0
 16 17  2  0
 17 18  1  0
 18 19  2  0
 19 20  1  0
 20 21  2  0
 21 22  1  0
 22 23  1  0
 23 24  2  0
 24 25  1  0
 25 26  2  0
 26 27  1  0
 27 28  1  0
 28 29  2  0
 29 30  1  0
 30 31  2  0
 31 32  1  0
 32 33  2  0
 15 34  1  0
 34 35  2  0
  6 36  1  0
 36 37  1  0
 37 38  1  0
 38  3  1  0
 11  7  1  0
 34 12  1  0
 21 16  1  0
 27 22  1  0
 33 28  1  0
M  END
>  <Title>  (1190) 
idABTTgen8

$$$$

     RDKit          2D

 23 23  0  0  0  0  0  0  0  0999 V2000
    7.2821   -1.2990    0.0000 O   0  0  0  0  0  0  0  0  0  0  0  0
    6.5321    0.0000    0.0000 C   0  0  0  0  0  0  0  0  0  0  0  0
    5.0321    0.0000    0.0000 C   0  0  0  0  0  0  0  0  0  0  0  0
    4.8086    1.4832    0.0000 C   0  0  0  0  0  0  0  0  0  0  0  0
    4.1577    2.8347    0.0000 C   0  0  0  0  0  0  0  0  0  0  0  0
    3.1375    3.9343    0.0000 C   0  0  0  0  0  0  0  0  0  0  0  0
    1.8384    4.6843    0.0000 C   0  0  0  0  0  0  0  0  0  0  0  0
    0.3761    5.0181    0.0000 C   0  0  0  0  0  0  0  0  0  0  0  0
   -1.1198    4.9060    0.0000 C   0  0  0  0  0  0  0  0  0  0  0  0
   -2.5161    4.3580    0.0000 C   0  0  0  0  0  0  0  0  0  0  0  0
   -3.6888    3.4227    0.0000 C   0  0  0  0  0  0  0  0  0  0  0  0
   -4.5338    2.1834    0.0000 C   0  0  0  0  0  0  0  0  0  0  0  0
   -4.9759    0.7500    0.0000 C   0  0  0  0  0  0  0  0  0  0  0  0
   -4.9759   -0.7500    0.0000 C   0  0  0  0  0  0  0  0  0  0  0  0
   -4.5338   -2.1834    0.0000 C   0  0  0  0  0  0  0  0  0  0  0  0
   -3.6888   -3.4227    0.0000 C   0  0  0  0  0  0  0  0  0  0  0  0
   -2.5161   -4.3580    0.0000 C   0  0  0  0  0  0  0  0  0  0  0  0
   -1.1198   -4.9060    0.0000 C   0  0  0  0  0  0  0  0  0  0  0  0
    0.3761   -5.0181    0.0000 C   0  0  0  0  0  0  0  0  0  0  0  0
    1.8384   -4.6843    0.0000 C   0  0  0  0  0  0  0  0  0  0  0  0
    3.1375   -3.9343    0.0000 C   0  0  0  0  0  0  0  0  0  0  0  0
    4.1577   -2.8347    0.0000 C   0  0  0  0  0  0  0  0  0  0  0  0
    4.8086   -1.4832    0.0000 O   0  0  0  0  0  0  0  0  0  0  0  0
  1  2  1  0
  2  3  1  0
  3  4  1  0
  4  5  2  0
  5  6  1  0
  6  7  2  0
  7  8  1  0
  8  9  2  0
  9 10  1  0
 10 11  2  0
 11 12  1  0
 12 13  2  0
 13 14  1  0
 14 15  2  0
 15 16  1  0
 16 17  2  0
 17 18  1  0
 18 19  2  0
 19 20  1  0
 20 21  2  0
 21 22  1  0
 22 23  1  0
 23  3  1  0
M  END
>  <Title>  (1191) 
idABTUgen8

$$$$

     RDKit          2D

 11 12  0  0  0  0  0  0  0  0999 V2000
   -2.9499    4.2246    0.0000 C   0  0  0  0  0  0  0  0  0  0  0  0
   -1.8351    3.2209    0.0000 C   0  0  0  0  0  0  0  0  0  0  0  0
   -0.4086    3.6844    0.0000 C   0  0  0  0  0  0  0  0  0  0  0  0
    0.7062    2.6807    0.0000 C   0  0  0  0  0  0  0  0  0  0  0  0
    0.3943    1.2135    0.0000 C   0  0  0  0  0  0  0  0  0  0  0  0
    1.2760    0.0000    0.0000 C   0  0  0  0  0  0  0  0  0  0  0  0
    0.3943   -1.2135    0.0000 C   0  0  0  0  0  0  0  0  0  0  0  0
   -1.0323   -0.7500    0.0000 C   0  0  0  0  0  0  0  0  0  0  0  0
   -1.0323    0.7500    0.0000 C   0  0  0  0  0  0  0  0  0  0  0  0
   -2.1470    1.7537    0.0000 N   0  0  0  0  0  0  0  0  0  0  0  0
   -3.5736    1.2902    0.0000 C   0  0  0  0  0  0  0  0  0  0  0  0
  1  2  1  0
  2  3  2  0
  3  4  1  0
  4  5  2  0
  5  6  1  0
  6  7  2  0
  7  8  1  0
  8  9  2  0
  9 10  1  0
 10 11  1  0
 10  2  1  0
  9  5  1  0
M  END
>  <Title>  (1192) 
idABTVgen8

$$$$

     RDKit          2D

 48 54  0  0  0  0  0  0  0  0999 V2000
    3.4598   -0.0000    0.0000 C   0  0  0  0  0  0  0  0  0  0  0  0
    1.9598    0.0000    0.0000 C   0  0  0  0  0  0  0  0  0  0  0  0
    1.3858   -1.3858    0.0000 C   0  0  0  0  0  0  0  0  0  0  0  0
   -0.0000   -1.9598    0.0000 C   0  0  0  0  0  0  0  0  0  0  0  0
   -1.3858   -1.3858    0.0000 C   0  0  0  0  0  0  0  0  0  0  0  0
   -1.9598    0.0000    0.0000 C   0  0  0  0  0  0  0  0  0  0  0  0
   -1.3858    1.3858    0.0000 C   0  0  0  0  0  0  0  0  0  0  0  0
   -2.4465    2.4465    0.0000 N   0  0  0  0  0  0  0  0  0  0  0  0
   -3.9280    2.2118    0.0000 C   0  0  0  0  0  0  0  0  0  0  0  0
   -4.6090    3.5483    0.0000 C   0  0  0  0  0  0  0  0  0  0  0  0
   -3.5483    4.6090    0.0000 C   0  0  0  0  0  0  0  0  0  0  0  0
   -2.2118    3.9280    0.0000 C   0  0  0  0  0  0  0  0  0  0  0  0
   -0.8753    4.6090    0.0000 C   0  0  0  0  0  0  0  0  0  0  0  0
    0.3827    3.7920    0.0000 C   0  0  0  0  0  0  0  0  0  0  0  0
    1.7192    4.4730    0.0000 C   0  0  0  0  0  0  0  0  0  0  0  0
    1.7977    5.9710    0.0000 C   0  0  0  0  0  0  0  0  0  0  0  0
    3.1342    6.6520    0.0000 C   0  0  0  0  0  0  0  0  0  0  0  0
    3.3689    8.1335    0.0000 N   0  0  0  0  0  0  0  0  0  0  0  0
    4.8504    8.3681    0.0000 N   0  0  0  0  0  0  0  0  0  0  0  0
    5.5314    7.0316    0.0000 N   0  0  0  0  0  0  0  0  0  0  0  0
    4.4707    5.9710    0.0000 N   0  0  0  0  0  0  0  0  0  0  0  0
    4.7054    4.4894    0.0000 C   0  0  0  0  0  0  0  0  0  0  0  0
    3.5397    3.5455    0.0000 C   0  0  0  0  0  0  0  0  0  0  0  0
    3.7743    2.0639    0.0000 C   0  0  0  0  0  0  0  0  0  0  0  0
    5.1747    1.5264    0.0000 C   0  0  0  0  0  0  0  0  0  0  0  0
    6.3404    2.4704    0.0000 C   0  0  0  0  0  0  0  0  0  0  0  0
    6.1057    3.9519    0.0000 C   0  0  0  0  0  0  0  0  0  0  0  0
    0.5397    6.7879    0.0000 C   0  0  0  0  0  0  0  0  0  0  0  0
   -0.7968    6.1069    0.0000 C   0  0  0  0  0  0  0  0  0  0  0  0
   -2.0548    6.9239    0.0000 C   0  0  0  0  0  0  0  0  0  0  0  0
   -3.3913    6.2429    0.0000 C   0  0  0  0  0  0  0  0  0  0  0  0
   -4.6493    7.0599    0.0000 C   0  0  0  0  0  0  0  0  0  0  0  0
   -4.5708    8.5578    0.0000 N   0  0  0  0  0  0  0  0  0  0  0  0
   -3.2343    9.2388    0.0000 N   0  0  0  0  0  0  0  0  0  0  0  0
   -1.9763    8.4218    0.0000 C   0  0  0  0  0  0  0  0  0  0  0  0
   -0.6398    9.1028    0.0000 N   0  0  0  0  0  0  0  0  0  0  0  0
   -0.5613   10.6008    0.0000 C   0  0  0  0  0  0  0  0  0  0  0  0
   -1.8193   11.4177    0.0000 C   0  0  0  0  0  0  0  0  0  0  0  0
   -1.7408   12.9157    0.0000 C   0  0  0  0  0  0  0  0  0  0  0  0
   -0.4043   13.5967    0.0000 C   0  0  0  0  0  0  0  0  0  0  0  0
   -0.3258   15.0946    0.0000 C   0  0  0  0  0  0  0  0  0  0  0  0
    1.0107   15.7756    0.0000 O   0  0  0  0  0  0  0  0  0  0  0  0
   -1.5838   15.9116    0.0000 N   0  0  0  0  0  0  0  0  0  0  0  0
   -1.5053   17.4095    0.0000 O   0  0  0  0  0  0  0  0  0  0  0  0
    0.8537   12.7797    0.0000 C   0  0  0  0  0  0  0  0  0  0  0  0
    0.7752   11.2818    0.0000 C   0  0  0  0  0  0  0  0  0  0  0  0
    0.0000    1.9598    0.0000 C   0  0  0  0  0  0  0  0  0  0  0  0
    1.3858    1.3858    0.0000 C   0  0  0  0  0  0  0  0  0  0  0  0
  1  2  1  0
  2  3  2  0
  3  4  1  0
  4  5  2  0
  5  6  1  0
  6  7  2  0
  7  8  1  0
  8  9  1  0
  9 10  2  0
 10 11  1  0
 11 12  2  0
 12 13  1  0
 13 14  2  0
 14 15  1  0
 15 16  2  0
 16 17  1  0
 17 18  2  0
 18 19  1  0
 19 20  2  0
 20 21  1  0
 21 22  1  0
 22 23  2  0
 23 24  1  0
 24 25  2  0
 25 26  1  0
 26 27  2  0
 16 28  1  0
 28 29  2  0
 29 30  1  0
 30 31  2  0
 31 32  1  0
 32 33  2  0
 33 34  1  0
 34 35  2  0
 35 36  1  0
 36 37  1  0
 37 38  2  0
 38 39  1  0
 39 40  2  0
 40 41  1  0
 41 42  2  0
 41 43  1  0
 43 44  1  0
 40 45  1  0
 45 46  1  0
  7 47  1  0
 47 48  2  0
 48  2  1  0
 12  8  1  0
 29 13  1  0
 35 30  1  0
 46 37  1  0
 21 17  1  0
 27 22  1  0
M  END
>  <Title>  (1193) 
idABTWgen8

$$$$

     RDKit          2D

 18 19  0  0  0  0  0  0  0  0999 V2000
    3.6929    0.0000    0.0000 C   0  0  0  0  0  0  0  0  0  0  0  0
    2.1929    0.0000    0.0000 C   0  0  0  0  0  0  0  0  0  0  0  0
    1.6798    1.4095    0.0000 C   0  0  0  0  0  0  0  0  0  0  0  0
    0.3808    2.1595    0.0000 C   0  0  0  0  0  0  0  0  0  0  0  0
   -1.0964    1.8991    0.0000 N   0  0  0  0  0  0  0  0  0  0  0  0
   -2.0606    0.7500    0.0000 N   0  0  0  0  0  0  0  0  0  0  0  0
   -2.0606   -0.7500    0.0000 C   0  0  0  0  0  0  0  0  0  0  0  0
   -3.5601   -0.7874    0.0000 C   0  0  0  0  0  0  0  0  0  0  0  0
   -4.2445    0.5474    0.0000 O   0  0  0  0  0  0  0  0  0  0  0  0
   -4.4658   -1.9831    0.0000 N   0  0  0  0  0  0  0  0  0  0  0  0
   -4.0957   -3.4367    0.0000 C   0  0  0  0  0  0  0  0  0  0  0  0
   -5.2448   -4.4009    0.0000 O   0  0  0  0  0  0  0  0  0  0  0  0
   -2.7285   -4.0536    0.0000 N   0  0  0  0  0  0  0  0  0  0  0  0
   -1.3936   -3.3693    0.0000 C   0  0  0  0  0  0  0  0  0  0  0  0
   -0.1979   -4.2750    0.0000 O   0  0  0  0  0  0  0  0  0  0  0  0
   -1.0964   -1.8991    0.0000 C   0  0  0  0  0  0  0  0  0  0  0  0
    0.3808   -2.1595    0.0000 C   0  0  0  0  0  0  0  0  0  0  0  0
    1.6798   -1.4095    0.0000 N   0  0  0  0  0  0  0  0  0  0  0  0
  1  2  1  0
  2  3  2  0
  3  4  1  0
  4  5  2  0
  5  6  1  0
  6  7  2  0
  7  8  1  0
  8  9  2  0
  8 10  1  0
 10 11  1  0
 11 12  2  0
 11 13  1  0
 13 14  1  0
 14 15  2  0
 14 16  1  0
 16 17  1  0
 17 18  1  0
 18  2  1  0
 16  7  1  0
M  END
>  <Title>  (1194) 
idABTXgen8

$$$$

     RDKit          2D

 24 24  0  0  0  0  0  0  0  0999 V2000
    7.5200   -1.2990    0.0000 C   0  0  0  0  0  0  0  0  0  0  0  0
    6.7700    0.0000    0.0000 C   0  0  0  0  0  0  0  0  0  0  0  0
    5.2700    0.0000    0.0000 C   0  0  0  0  0  0  0  0  0  0  0  0
    5.0565   -1.4847    0.0000 C   0  0  0  0  0  0  0  0  0  0  0  0
    4.4334   -2.8492    0.0000 C   0  0  0  0  0  0  0  0  0  0  0  0
    3.4511   -3.9828    0.0000 C   0  0  0  0  0  0  0  0  0  0  0  0
    2.1892   -4.7938    0.0000 C   0  0  0  0  0  0  0  0  0  0  0  0
    0.7500   -5.2164    0.0000 C   0  0  0  0  0  0  0  0  0  0  0  0
   -0.7500   -5.2164    0.0000 C   0  0  0  0  0  0  0  0  0  0  0  0
   -2.1892   -4.7938    0.0000 C   0  0  0  0  0  0  0  0  0  0  0  0
   -3.4511   -3.9828    0.0000 C   0  0  0  0  0  0  0  0  0  0  0  0
   -4.4334   -2.8492    0.0000 C   0  0  0  0  0  0  0  0  0  0  0  0
   -5.0565   -1.4847    0.0000 C   0  0  0  0  0  0  0  0  0  0  0  0
   -5.2700    0.0000    0.0000 C   0  0  0  0  0  0  0  0  0  0  0  0
   -5.0565    1.4847    0.0000 C   0  0  0  0  0  0  0  0  0  0  0  0
   -4.4334    2.8492    0.0000 C   0  0  0  0  0  0  0  0  0  0  0  0
   -3.4511    3.9828    0.0000 C   0  0  0  0  0  0  0  0  0  0  0  0
   -2.1892    4.7938    0.0000 C   0  0  0  0  0  0  0  0  0  0  0  0
   -0.7500    5.2164    0.0000 C   0  0  0  0  0  0  0  0  0  0  0  0
    0.7500    5.2164    0.0000 C   0  0  0  0  0  0  0  0  0  0  0  0
    2.1892    4.7938    0.0000 C   0  0  0  0  0  0  0  0  0  0  0  0
    3.4511    3.9828    0.0000 C   0  0  0  0  0  0  0  0  0  0  0  0
    4.4334    2.8492    0.0000 C   0  0  0  0  0  0  0  0  0  0  0  0
    5.0565    1.4847    0.0000 C   0  0  0  0  0  0  0  0  0  0  0  0
  1  2  1  0
  2  3  1  0
  3  4  2  0
  4  5  1  0
  5  6  2  0
  6  7  1  0
  7  8  2  0
  8  9  1  0
  9 10  2  0
 10 11  1  0
 11 12  2  0
 12 13  1  0
 13 14  2  0
 14 15  1  0
 15 16  2  0
 16 17  1  0
 17 18  2  0
 18 19  1  0
 19 20  2  0
 20 21  1  0
 21 22  2  0
 22 23  1  0
 23 24  2  0
 24  3  1  0
M  END
>  <Title>  (1195) 
idABTYgen8

$$$$

     RDKit          2D

 45 50  0  0  0  0  0  0  0  0999 V2000
    3.0000    0.0000    0.0000 C   0  0  0  0  0  0  0  0  0  0  0  0
    1.5000    0.0000    0.0000 C   0  0  0  0  0  0  0  0  0  0  0  0
    0.7500   -1.2990    0.0000 C   0  0  0  0  0  0  0  0  0  0  0  0
   -0.7500   -1.2990    0.0000 C   0  0  0  0  0  0  0  0  0  0  0  0
   -1.5000    0.0000    0.0000 C   0  0  0  0  0  0  0  0  0  0  0  0
   -2.9832   -0.2236    0.0000 C   0  0  0  0  0  0  0  0  0  0  0  0
   -3.4254   -1.6569    0.0000 C   0  0  0  0  0  0  0  0  0  0  0  0
   -2.4051   -2.7565    0.0000 O   0  0  0  0  0  0  0  0  0  0  0  0
   -4.8878   -1.9907    0.0000 N   0  0  0  0  0  0  0  0  0  0  0  0
   -5.3299   -3.4241    0.0000 C   0  0  0  0  0  0  0  0  0  0  0  0
   -4.4302   -4.6243    0.0000 N   0  0  0  0  0  0  0  0  0  0  0  0
   -5.2936   -5.8508    0.0000 N   0  0  0  0  0  0  0  0  0  0  0  0
   -6.7270   -5.4087    0.0000 N   0  0  0  0  0  0  0  0  0  0  0  0
   -6.7494   -3.9089    0.0000 N   0  0  0  0  0  0  0  0  0  0  0  0
   -7.9760   -3.0455    0.0000 C   0  0  0  0  0  0  0  0  0  0  0  0
   -9.3955   -3.5303    0.0000 C   0  0  0  0  0  0  0  0  0  0  0  0
  -10.2952   -2.3301    0.0000 C   0  0  0  0  0  0  0  0  0  0  0  0
   -9.4318   -1.1035    0.0000 C   0  0  0  0  0  0  0  0  0  0  0  0
   -9.9166    0.3160    0.0000 C   0  0  0  0  0  0  0  0  0  0  0  0
  -11.3883    0.6059    0.0000 O   0  0  0  0  0  0  0  0  0  0  0  0
   -8.9297    1.4456    0.0000 N   0  0  0  0  0  0  0  0  0  0  0  0
   -9.4145    2.8651    0.0000 C   0  0  0  0  0  0  0  0  0  0  0  0
  -10.8862    3.1550    0.0000 O   0  0  0  0  0  0  0  0  0  0  0  0
   -8.4276    3.9947    0.0000 N   0  0  0  0  0  0  0  0  0  0  0  0
   -8.9124    5.4142    0.0000 C   0  0  0  0  0  0  0  0  0  0  0  0
  -10.3458    5.8563    0.0000 N   0  0  0  0  0  0  0  0  0  0  0  0
  -10.3682    7.3562    0.0000 N   0  0  0  0  0  0  0  0  0  0  0  0
   -8.9487    7.8410    0.0000 N   0  0  0  0  0  0  0  0  0  0  0  0
   -8.0490    6.6408    0.0000 N   0  0  0  0  0  0  0  0  0  0  0  0
   -6.5491    6.6632    0.0000 C   0  0  0  0  0  0  0  0  0  0  0  0
   -5.7798    5.3755    0.0000 C   0  0  0  0  0  0  0  0  0  0  0  0
   -4.2800    5.3980    0.0000 C   0  0  0  0  0  0  0  0  0  0  0  0
   -3.5495    6.7081    0.0000 C   0  0  0  0  0  0  0  0  0  0  0  0
   -4.3188    7.9958    0.0000 C   0  0  0  0  0  0  0  0  0  0  0  0
   -5.8187    7.9733    0.0000 C   0  0  0  0  0  0  0  0  0  0  0  0
   -7.9984   -1.5456    0.0000 C   0  0  0  0  0  0  0  0  0  0  0  0
   -6.7982   -0.6459    0.0000 O   0  0  0  0  0  0  0  0  0  0  0  0
   -4.0828    0.7967    0.0000 C   0  0  0  0  0  0  0  0  0  0  0  0
   -3.9707    2.2925    0.0000 C   0  0  0  0  0  0  0  0  0  0  0  0
   -2.7314    3.1375    0.0000 C   0  0  0  0  0  0  0  0  0  0  0  0
   -2.9549    4.6207    0.0000 C   0  0  0  0  0  0  0  0  0  0  0  0
   -1.2980    2.6953    0.0000 C   0  0  0  0  0  0  0  0  0  0  0  0
   -0.2778    3.7949    0.0000 O   0  0  0  0  0  0  0  0  0  0  0  0
   -0.7500    1.2990    0.0000 C   0  0  0  0  0  0  0  0  0  0  0  0
    0.7500    1.2990    0.0000 C   0  0  0  0  0  0  0  0  0  0  0  0
  1  2  1  0
  2  3  2  0
  3  4  1  0
  4  5  2  0
  5  6  1  0
  6  7  1  0
  7  8  2  0
  7  9  1  0
  9 10  1  0
 10 11  2  0
 11 12  1  0
 12 13  2  0
 13 14  1  0
 14 15  1  0
 15 16  2  0
 16 17  1  0
 17 18  2  0
 18 19  1  0
 19 20  2  0
 19 21  1  0
 21 22  1  0
 22 23  2  0
 22 24  1  0
 24 25  1  0
 25 26  2  0
 26 27  1  0
 27 28  2  0
 28 29  1  0
 29 30  1  0
 30 31  2  0
 31 32  1  0
 32 33  2  0
 33 34  1  0
 34 35  2  0
 18 36  1  0
 36 37  2  0
  6 38  2  0
 38 39  1  0
 39 40  2  0
 40 41  1  0
 40 42  1  0
 42 43  2  0
 42 44  1  0
 44 45  2  0
 45  2  1  0
 44  5  1  0
 14 10  1  0
 36 15  1  0
 29 25  1  0
 35 30  1  0
M  END
>  <Title>  (1196) 
idABTZgen8

$$$$

     RDKit          2D

 29 33  0  0  0  0  0  0  0  0999 V2000
    3.0000    0.0000    0.0000 C   0  0  0  0  0  0  0  0  0  0  0  0
    1.5000    0.0000    0.0000 C   0  0  0  0  0  0  0  0  0  0  0  0
    0.7500   -1.2990    0.0000 C   0  0  0  0  0  0  0  0  0  0  0  0
   -0.7500   -1.2990    0.0000 C   0  0  0  0  0  0  0  0  0  0  0  0
   -1.5000    0.0000    0.0000 C   0  0  0  0  0  0  0  0  0  0  0  0
   -3.0000    0.0000    0.0000 C   0  0  0  0  0  0  0  0  0  0  0  0
   -3.8817   -1.2135    0.0000 C   0  0  0  0  0  0  0  0  0  0  0  0
   -5.3083   -0.7500    0.0000 N   0  0  0  0  0  0  0  0  0  0  0  0
   -5.3083    0.7500    0.0000 N   0  0  0  0  0  0  0  0  0  0  0  0
   -3.8817    1.2135    0.0000 N   0  0  0  0  0  0  0  0  0  0  0  0
   -3.4182    2.6401    0.0000 C   0  0  0  0  0  0  0  0  0  0  0  0
   -1.9509    2.9520    0.0000 C   0  0  0  0  0  0  0  0  0  0  0  0
   -1.4874    4.3786    0.0000 C   0  0  0  0  0  0  0  0  0  0  0  0
   -2.4911    5.4933    0.0000 C   0  0  0  0  0  0  0  0  0  0  0  0
   -2.0276    6.9199    0.0000 C   0  0  0  0  0  0  0  0  0  0  0  0
   -2.9093    8.1334    0.0000 N   0  0  0  0  0  0  0  0  0  0  0  0
   -2.0276    9.3469    0.0000 N   0  0  0  0  0  0  0  0  0  0  0  0
   -0.6010    8.8834    0.0000 N   0  0  0  0  0  0  0  0  0  0  0  0
   -0.6010    7.3834    0.0000 N   0  0  0  0  0  0  0  0  0  0  0  0
    0.6125    6.5017    0.0000 C   0  0  0  0  0  0  0  0  0  0  0  0
    0.4557    5.0099    0.0000 C   0  0  0  0  0  0  0  0  0  0  0  0
    1.6693    4.1283    0.0000 C   0  0  0  0  0  0  0  0  0  0  0  0
    3.0396    4.7384    0.0000 C   0  0  0  0  0  0  0  0  0  0  0  0
    3.1964    6.2301    0.0000 C   0  0  0  0  0  0  0  0  0  0  0  0
    1.9829    7.1118    0.0000 C   0  0  0  0  0  0  0  0  0  0  0  0
   -3.9583    5.1814    0.0000 C   0  0  0  0  0  0  0  0  0  0  0  0
   -4.4218    3.7548    0.0000 C   0  0  0  0  0  0  0  0  0  0  0  0
   -0.7500    1.2990    0.0000 C   0  0  0  0  0  0  0  0  0  0  0  0
    0.7500    1.2990    0.0000 C   0  0  0  0  0  0  0  0  0  0  0  0
  1  2  1  0
  2  3  2  0
  3  4  1  0
  4  5  2  0
  5  6  1  0
  6  7  2  0
  7  8  1  0
  8  9  2  0
  9 10  1  0
 10 11  1  0
 11 12  2  0
 12 13  1  0
 13 14  2  0
 14 15  1  0
 15 16  2  0
 16 17  1  0
 17 18  2  0
 18 19  1  0
 19 20  1  0
 20 21  2  0
 21 22  1  0
 22 23  2  0
 23 24  1  0
 24 25  2  0
 14 26  1  0
 26 27  2  0
  5 28  1  0
 28 29  2  0
 29  2  1  0
 10  6  1  0
 27 11  1  0
 19 15  1  0
 25 20  1  0
M  END
>  <Title>  (1197) 
idABUAgen8

$$$$

     RDKit          2D

 14 14  0  0  0  0  0  0  0  0999 V2000
    5.7098   -1.2990    0.0000 C   0  0  0  0  0  0  0  0  0  0  0  0
    4.2098   -1.2990    0.0000 C   0  0  0  0  0  0  0  0  0  0  0  0
    3.4598   -2.5981    0.0000 O   0  0  0  0  0  0  0  0  0  0  0  0
    3.4598   -0.0000    0.0000 N   0  0  0  0  0  0  0  0  0  0  0  0
    1.9598    0.0000    0.0000 C   0  0  0  0  0  0  0  0  0  0  0  0
    1.3858   -1.3858    0.0000 C   0  0  0  0  0  0  0  0  0  0  0  0
   -0.0000   -1.9598    0.0000 C   0  0  0  0  0  0  0  0  0  0  0  0
   -1.3858   -1.3858    0.0000 C   0  0  0  0  0  0  0  0  0  0  0  0
   -1.9598    0.0000    0.0000 C   0  0  0  0  0  0  0  0  0  0  0  0
   -1.3858    1.3858    0.0000 C   0  0  0  0  0  0  0  0  0  0  0  0
   -2.4465    2.4465    0.0000 F   0  0  0  0  0  0  0  0  0  0  0  0
    0.0000    1.9598    0.0000 C   0  0  0  0  0  0  0  0  0  0  0  0
    1.3858    1.3858    0.0000 C   0  0  0  0  0  0  0  0  0  0  0  0
    2.4465    2.4465    0.0000 C   0  0  0  0  0  0  0  0  0  0  0  0
  1  2  1  0
  2  3  2  0
  2  4  1  0
  4  5  1  0
  5  6  2  0
  6  7  1  0
  7  8  2  0
  8  9  1  0
  9 10  2  0
 10 11  1  0
 10 12  1  0
 12 13  2  0
 13 14  1  0
 13  5  1  0
M  END
>  <Title>  (1198) 
idABUBgen8

$$$$

     RDKit          2D

 39 40  0  0  0  0  0  0  0  0999 V2000
   -4.8824   -0.2396    0.0000 C   0  0  0  0  0  0  0  0  0  0  0  0
   -3.3953   -0.4354    0.0000 O   0  0  0  0  0  0  0  0  0  0  0  0
   -2.8212   -1.8212    0.0000 C   0  0  0  0  0  0  0  0  0  0  0  0
   -4.1441   -2.5283    0.0000 C   0  0  0  0  0  0  0  0  0  0  0  0
   -5.3036   -3.4799    0.0000 C   0  0  0  0  0  0  0  0  0  0  0  0
   -6.2552   -4.6394    0.0000 C   0  0  0  0  0  0  0  0  0  0  0  0
   -6.9623   -5.9623    0.0000 C   0  0  0  0  0  0  0  0  0  0  0  0
   -7.3977   -7.3977    0.0000 C   0  0  0  0  0  0  0  0  0  0  0  0
   -7.5448   -8.8905    0.0000 C   0  0  0  0  0  0  0  0  0  0  0  0
   -7.3977  -10.3833    0.0000 C   0  0  0  0  0  0  0  0  0  0  0  0
   -6.9623  -11.8187    0.0000 C   0  0  0  0  0  0  0  0  0  0  0  0
   -6.2552  -13.1416    0.0000 C   0  0  0  0  0  0  0  0  0  0  0  0
   -5.3036  -14.3011    0.0000 C   0  0  0  0  0  0  0  0  0  0  0  0
   -4.1441  -15.2527    0.0000 C   0  0  0  0  0  0  0  0  0  0  0  0
   -2.8212  -15.9598    0.0000 C   0  0  0  0  0  0  0  0  0  0  0  0
   -1.3858  -16.3952    0.0000 C   0  0  0  0  0  0  0  0  0  0  0  0
    0.1070  -16.5422    0.0000 C   0  0  0  0  0  0  0  0  0  0  0  0
    1.5997  -16.3952    0.0000 C   0  0  0  0  0  0  0  0  0  0  0  0
    3.0351  -15.9598    0.0000 C   0  0  0  0  0  0  0  0  0  0  0  0
    4.3580  -15.2527    0.0000 C   0  0  0  0  0  0  0  0  0  0  0  0
    5.5175  -14.3011    0.0000 C   0  0  0  0  0  0  0  0  0  0  0  0
    6.4691  -13.1416    0.0000 C   0  0  0  0  0  0  0  0  0  0  0  0
    7.1762  -11.8187    0.0000 C   0  0  0  0  0  0  0  0  0  0  0  0
    7.6117  -10.3833    0.0000 C   0  0  0  0  0  0  0  0  0  0  0  0
    7.7587   -8.8905    0.0000 C   0  0  0  0  0  0  0  0  0  0  0  0
    7.6117   -7.3977    0.0000 C   0  0  0  0  0  0  0  0  0  0  0  0
    7.1762   -5.9623    0.0000 C   0  0  0  0  0  0  0  0  0  0  0  0
    6.4691   -4.6394    0.0000 C   0  0  0  0  0  0  0  0  0  0  0  0
    5.5175   -3.4799    0.0000 C   0  0  0  0  0  0  0  0  0  0  0  0
    4.3580   -2.5283    0.0000 C   0  0  0  0  0  0  0  0  0  0  0  0
    3.0351   -1.8212    0.0000 C   0  0  0  0  0  0  0  0  0  0  0  0
    1.3858   -1.3858    0.0000 C   0  0  0  0  0  0  0  0  0  0  0  0
    1.9598    0.0000    0.0000 C   0  0  0  0  0  0  0  0  0  0  0  0
    1.3858    1.3858    0.0000 C   0  0  0  0  0  0  0  0  0  0  0  0
    0.0000    1.9598    0.0000 C   0  0  0  0  0  0  0  0  0  0  0  0
   -1.3858    1.3858    0.0000 C   0  0  0  0  0  0  0  0  0  0  0  0
   -1.9598    0.0000    0.0000 C   0  0  0  0  0  0  0  0  0  0  0  0
   -1.3858   -1.3858    0.0000 C   0  0  0  0  0  0  0  0  0  0  0  0
   -0.0000   -1.9598    0.0000 O   0  0  0  0  0  0  0  0  0  0  0  0
  1  2  1  0
  2  3  1  0
  3  4  2  0
  4  5  1  0
  5  6  2  0
  6  7  1  0
  7  8  2  0
  8  9  1  0
  9 10  2  0
 10 11  1  0
 11 12  2  0
 12 13  1  0
 13 14  2  0
 14 15  1  0
 15 16  2  0
 16 17  1  0
 17 18  2  0
 18 19  1  0
 19 20  2  0
 20 21  1  0
 21 22  2  0
 22 23  1  0
 23 24  2  0
 24 25  1  0
 25 26  2  0
 26 27  1  0
 27 28  2  0
 28 29  1  0
 29 30  2  0
 30 31  1  0
 31 32  2  0
 32 33  1  0
 33 34  2  0
 34 35  1  0
 35 36  2  0
 36 37  1  0
 37 38  2  0
 38 39  1  0
 38  3  1  0
 39 32  1  0
M  END
>  <Title>  (1199) 
idABUCgen8

$$$$

     RDKit          2D

  9  9  0  0  0  0  0  0  0  0999 V2000
    3.0000    0.0000    0.0000 N   0  0  0  0  0  0  0  0  0  0  0  0
    1.5000    0.0000    0.0000 C   0  0  0  0  0  0  0  0  0  0  0  0
    0.7500   -1.2990    0.0000 C   0  0  0  0  0  0  0  0  0  0  0  0
   -0.7500   -1.2990    0.0000 C   0  0  0  0  0  0  0  0  0  0  0  0
   -1.5000    0.0000    0.0000 C   0  0  0  0  0  0  0  0  0  0  0  0
   -0.7500    1.2990    0.0000 C   0  0  0  0  0  0  0  0  0  0  0  0
    0.7500    1.2990    0.0000 C   0  0  0  0  0  0  0  0  0  0  0  0
    1.5000    2.5981    0.0000 C   0  0  0  0  0  0  0  0  0  0  0  0
    3.0000    2.5981    0.0000 O   0  0  0  0  0  0  0  0  0  0  0  0
  1  2  1  0
  2  3  2  0
  3  4  1  0
  4  5  2  0
  5  6  1  0
  6  7  2  0
  7  8  1  0
  8  9  1  0
  7  2  1  0
M  END
>  <Title>  (1200) 
idABUDgen8

$$$$

     RDKit          2D

 15 15  0  0  0  0  0  0  0  0999 V2000
    4.9121   -1.2990    0.0000 C   0  0  0  0  0  0  0  0  0  0  0  0
    4.1621    0.0000    0.0000 O   0  0  0  0  0  0  0  0  0  0  0  0
    2.6621    0.0000    0.0000 C   0  0  0  0  0  0  0  0  0  0  0  0
    2.2395    1.4392    0.0000 C   0  0  0  0  0  0  0  0  0  0  0  0
    3.5014    2.2502    0.0000 O   0  0  0  0  0  0  0  0  0  0  0  0
    1.1059    2.4215    0.0000 C   0  0  0  0  0  0  0  0  0  0  0  0
   -0.3789    2.6350    0.0000 C   0  0  0  0  0  0  0  0  0  0  0  0
   -1.7433    2.0119    0.0000 C   0  0  0  0  0  0  0  0  0  0  0  0
   -2.5543    0.7500    0.0000 C   0  0  0  0  0  0  0  0  0  0  0  0
   -2.5543   -0.7500    0.0000 C   0  0  0  0  0  0  0  0  0  0  0  0
   -1.7433   -2.0119    0.0000 C   0  0  0  0  0  0  0  0  0  0  0  0
   -0.3789   -2.6350    0.0000 C   0  0  0  0  0  0  0  0  0  0  0  0
    1.1059   -2.4215    0.0000 C   0  0  0  0  0  0  0  0  0  0  0  0
    2.2395   -1.4392    0.0000 C   0  0  0  0  0  0  0  0  0  0  0  0
    3.5014   -2.2502    0.0000 N   0  0  0  0  0  0  0  0  0  0  0  0
  1  2  1  0
  2  3  1  0
  3  4  2  0
  4  5  1  0
  4  6  1  0
  6  7  2  0
  7  8  1  0
  8  9  1  0
  9 10  2  0
 10 11  1  0
 11 12  2  0
 12 13  1  0
 13 14  2  0
 14 15  1  0
 14  3  1  0
M  END
>  <Title>  (1201) 
idABUEgen8

$$$$

     RDKit          2D

 43 49  0  0  0  0  0  0  0  0999 V2000
    8.0362    1.2982    0.0000 C   0  0  0  0  0  0  0  0  0  0  0  0
    7.3689    2.6415    0.0000 C   0  0  0  0  0  0  0  0  0  0  0  0
    8.1986    3.8911    0.0000 C   0  0  0  0  0  0  0  0  0  0  0  0
    7.5313    5.2345    0.0000 C   0  0  0  0  0  0  0  0  0  0  0  0
    6.0342    5.3283    0.0000 C   0  0  0  0  0  0  0  0  0  0  0  0
    5.3669    6.6717    0.0000 C   0  0  0  0  0  0  0  0  0  0  0  0
    6.0615    8.0012    0.0000 N   0  0  0  0  0  0  0  0  0  0  0  0
    5.0117    9.0726    0.0000 N   0  0  0  0  0  0  0  0  0  0  0  0
    3.6683    8.4053    0.0000 N   0  0  0  0  0  0  0  0  0  0  0  0
    3.8878    6.9214    0.0000 N   0  0  0  0  0  0  0  0  0  0  0  0
    1.6120    4.1801    0.0000 C   0  0  0  0  0  0  0  0  0  0  0  0
    1.3759    2.8700    0.0000 C   0  0  0  0  0  0  0  0  0  0  0  0
    2.2194    2.6258    0.0000 C   0  0  0  0  0  0  0  0  0  0  0  0
    2.4884    1.8613    0.0000 C   0  0  0  0  0  0  0  0  0  0  0  0
    1.0777    1.3515    0.0000 C   0  0  0  0  0  0  0  0  0  0  0  0
    1.7286    0.0000    0.0000 C   0  0  0  0  0  0  0  0  0  0  0  0
    1.0777   -1.3515    0.0000 C   0  0  0  0  0  0  0  0  0  0  0  0
   -0.3846   -1.6852    0.0000 N   0  0  0  0  0  0  0  0  0  0  0  0
   -1.5574   -0.7500    0.0000 N   0  0  0  0  0  0  0  0  0  0  0  0
   -1.5574    0.7500    0.0000 N   0  0  0  0  0  0  0  0  0  0  0  0
   -0.3846    1.6852    0.0000 N   0  0  0  0  0  0  0  0  0  0  0  0
   -1.4344    2.7567    0.0000 C   0  0  0  0  0  0  0  0  0  0  0  0
   -0.8603    3.3287    0.0000 C   0  0  0  0  0  0  0  0  0  0  0  0
    0.0056    3.1828    0.0000 C   0  0  0  0  0  0  0  0  0  0  0  0
    0.3613    4.4656    0.0000 C   0  0  0  0  0  0  0  0  0  0  0  0
   -0.4997    7.9229    0.0000 C   0  0  0  0  0  0  0  0  0  0  0  0
    0.4671    9.0698    0.0000 C   0  0  0  0  0  0  0  0  0  0  0  0
   -0.0428   10.4805    0.0000 C   0  0  0  0  0  0  0  0  0  0  0  0
   -1.5194   10.7443    0.0000 C   0  0  0  0  0  0  0  0  0  0  0  0
   -2.4862    9.5974    0.0000 C   0  0  0  0  0  0  0  0  0  0  0  0
   -1.9763    8.1867    0.0000 C   0  0  0  0  0  0  0  0  0  0  0  0
    0.8842    3.8741    0.0000 C   0  0  0  0  0  0  0  0  0  0  0  0
    1.8411    8.0663    0.0000 O   0  0  0  0  0  0  0  0  0  0  0  0
   -0.1467    3.9627    0.0000 N   0  0  0  0  0  0  0  0  0  0  0  0
    0.7844    4.9069    0.0000 N   0  0  0  0  0  0  0  0  0  0  0  0
    1.5669    5.1615    0.0000 N   0  0  0  0  0  0  0  0  0  0  0  0
    2.1533    4.6174    0.0000 N   0  0  0  0  0  0  0  0  0  0  0  0
    2.4884    3.3613    0.0000 C   0  0  0  0  0  0  0  0  0  0  0  0
    1.3157    4.2965    0.0000 C   0  0  0  0  0  0  0  0  0  0  0  0
    1.9934    5.6347    0.0000 O   0  0  0  0  0  0  0  0  0  0  0  0
    5.2045    4.0787    0.0000 C   0  0  0  0  0  0  0  0  0  0  0  0
    3.7292    3.8074    0.0000 O   0  0  0  0  0  0  0  0  0  0  0  0
    5.8718    2.7353    0.0000 N   0  0  0  0  0  0  0  0  0  0  0  0
  1  2  1  0
  2  3  2  0
  3  4  1  0
  4  5  2  0
  5  6  1  0
  6  7  2  0
  7  8  1  0
  8  9  2  0
  9 10  1  0
 10 11  1  0
 11 12  2  0
 12 13  1  0
 13 14  2  0
 14 15  1  0
 15 16  2  0
 16 17  1  0
 17 18  2  0
 18 19  1  0
 19 20  2  0
 20 21  1  0
 21 22  1  0
 22 23  2  0
 23 24  1  0
 24 25  2  0
 25 26  1  0
 26 27  2  0
 27 28  1  0
 28 29  2  0
 29 30  1  0
 30 31  2  0
 25 32  1  0
 32 33  2  0
 22 34  1  0
 34 35  1  0
 35 36  2  0
 36 37  1  0
 37 38  2  0
 38 39  1  0
 39 40  2  0
  5 41  1  0
 41 42  2  0
 41 43  1  0
 43  2  1  0
 10  6  1  0
 32 11  1  0
 39 34  1  0
 38 14  1  0
 21 15  1  0
 31 26  1  0
M  END
>  <Title>  (1202) 
idABUFgen8

$$$$

     RDKit          2D

 67 77  0  0  0  0  0  0  0  0999 V2000
    3.7500   -1.2990    0.0000 C   0  0  0  0  0  0  0  0  0  0  0  0
    3.0000    0.0000    0.0000 O   0  0  0  0  0  0  0  0  0  0  0  0
    1.5000    0.0000    0.0000 C   0  0  0  0  0  0  0  0  0  0  0  0
    0.7500   -1.2990    0.0000 C   0  0  0  0  0  0  0  0  0  0  0  0
   -0.7500   -1.2990    0.0000 C   0  0  0  0  0  0  0  0  0  0  0  0
   -1.5000    0.0000    0.0000 C   0  0  0  0  0  0  0  0  0  0  0  0
   -3.0000    0.0000    0.0000 C   0  0  0  0  0  0  0  0  0  0  0  0
   -3.8817   -1.2135    0.0000 N   0  0  0  0  0  0  0  0  0  0  0  0
   -5.3083   -0.7500    0.0000 N   0  0  0  0  0  0  0  0  0  0  0  0
   -5.3083    0.7500    0.0000 N   0  0  0  0  0  0  0  0  0  0  0  0
   -3.8817    1.2135    0.0000 N   0  0  0  0  0  0  0  0  0  0  0  0
   -3.4182    2.6401    0.0000 C   0  0  0  0  0  0  0  0  0  0  0  0
   -1.9509    2.9520    0.0000 C   0  0  0  0  0  0  0  0  0  0  0  0
   -1.4874    4.3786    0.0000 C   0  0  0  0  0  0  0  0  0  0  0  0
   -2.4911    5.4933    0.0000 C   0  0  0  0  0  0  0  0  0  0  0  0
   -2.0276    6.9199    0.0000 C   0  0  0  0  0  0  0  0  0  0  0  0
   -3.0313    8.0346    0.0000 O   0  0  0  0  0  0  0  0  0  0  0  0
   -0.5604    7.2317    0.0000 N   0  0  0  0  0  0  0  0  0  0  0  0
   -0.0968    8.6583    0.0000 C   0  0  0  0  0  0  0  0  0  0  0  0
   -0.9785    9.8718    0.0000 N   0  0  0  0  0  0  0  0  0  0  0  0
   -0.0968   11.0854    0.0000 N   0  0  0  0  0  0  0  0  0  0  0  0
    1.3298   10.6218    0.0000 N   0  0  0  0  0  0  0  0  0  0  0  0
    1.3298    9.1218    0.0000 N   0  0  0  0  0  0  0  0  0  0  0  0
    2.5433    8.2402    0.0000 C   0  0  0  0  0  0  0  0  0  0  0  0
    2.3865    6.7484    0.0000 C   0  0  0  0  0  0  0  0  0  0  0  0
    3.6000    5.8667    0.0000 C   0  0  0  0  0  0  0  0  0  0  0  0
    4.9703    6.4768    0.0000 C   0  0  0  0  0  0  0  0  0  0  0  0
    6.1839    5.5951    0.0000 C   0  0  0  0  0  0  0  0  0  0  0  0
    6.0271    4.1033    0.0000 C   0  0  0  0  0  0  0  0  0  0  0  0
    7.2406    3.2217    0.0000 C   0  0  0  0  0  0  0  0  0  0  0  0
    8.6109    3.8318    0.0000 C   0  0  0  0  0  0  0  0  0  0  0  0
    8.7677    5.3236    0.0000 C   0  0  0  0  0  0  0  0  0  0  0  0
    7.5542    6.2052    0.0000 C   0  0  0  0  0  0  0  0  0  0  0  0
    5.1271    7.9686    0.0000 C   0  0  0  0  0  0  0  0  0  0  0  0
    3.9136    8.8503    0.0000 C   0  0  0  0  0  0  0  0  0  0  0  0
   -3.9583    5.1814    0.0000 C   0  0  0  0  0  0  0  0  0  0  0  0
   -4.4218    3.7548    0.0000 C   0  0  0  0  0  0  0  0  0  0  0  0
   -5.8891    3.4430    0.0000 C   0  0  0  0  0  0  0  0  0  0  0  0
   -6.4992    2.0726    0.0000 N   0  0  0  0  0  0  0  0  0  0  0  0
   -7.9910    2.2294    0.0000 N   0  0  0  0  0  0  0  0  0  0  0  0
   -8.3028    3.6967    0.0000 N   0  0  0  0  0  0  0  0  0  0  0  0
   -7.0038    4.4467    0.0000 N   0  0  0  0  0  0  0  0  0  0  0  0
   -6.8470    5.9384    0.0000 C   0  0  0  0  0  0  0  0  0  0  0  0
   -5.5480    6.6884    0.0000 N   0  0  0  0  0  0  0  0  0  0  0  0
   -5.8598    8.1557    0.0000 N   0  0  0  0  0  0  0  0  0  0  0  0
   -7.3516    8.3125    0.0000 N   0  0  0  0  0  0  0  0  0  0  0  0
   -7.9617    6.9421    0.0000 N   0  0  0  0  0  0  0  0  0  0  0  0
   -9.4289    6.6303    0.0000 C   0  0  0  0  0  0  0  0  0  0  0  0
  -10.0390    5.2599    0.0000 C   0  0  0  0  0  0  0  0  0  0  0  0
  -11.5308    5.4167    0.0000 C   0  0  0  0  0  0  0  0  0  0  0  0
  -11.8427    6.8840    0.0000 C   0  0  0  0  0  0  0  0  0  0  0  0
  -13.2130    7.4941    0.0000 C   0  0  0  0  0  0  0  0  0  0  0  0
  -14.5120    6.7441    0.0000 N   0  0  0  0  0  0  0  0  0  0  0  0
  -15.6268    7.7478    0.0000 N   0  0  0  0  0  0  0  0  0  0  0  0
  -15.0167    9.1181    0.0000 N   0  0  0  0  0  0  0  0  0  0  0  0
  -13.5249    8.9613    0.0000 N   0  0  0  0  0  0  0  0  0  0  0  0
  -12.5212   10.0760    0.0000 C   0  0  0  0  0  0  0  0  0  0  0  0
  -11.0540    9.7641    0.0000 C   0  0  0  0  0  0  0  0  0  0  0  0
  -10.0503   10.8789    0.0000 C   0  0  0  0  0  0  0  0  0  0  0  0
  -10.5138   12.3054    0.0000 C   0  0  0  0  0  0  0  0  0  0  0  0
  -11.9810   12.6173    0.0000 C   0  0  0  0  0  0  0  0  0  0  0  0
  -12.9847   11.5026    0.0000 C   0  0  0  0  0  0  0  0  0  0  0  0
  -10.5437    7.6340    0.0000 C   0  0  0  0  0  0  0  0  0  0  0  0
  -10.3869    9.1257    0.0000 O   0  0  0  0  0  0  0  0  0  0  0  0
   -0.7500    1.2990    0.0000 N   0  0  0  0  0  0  0  0  0  0  0  0
    0.7500    1.2990    0.0000 C   0  0  0  0  0  0  0  0  0  0  0  0
    1.5000    2.5981    0.0000 O   0  0  0  0  0  0  0  0  0  0  0  0
  1  2  1  0
  2  3  1  0
  3  4  2  0
  4  5  1  0
  5  6  2  0
  6  7  1  0
  7  8  2  0
  8  9  1  0
  9 10  2  0
 10 11  1  0
 11 12  1  0
 12 13  2  0
 13 14  1  0
 14 15  2  0
 15 16  1  0
 16 17  2  0
 16 18  1  0
 18 19  1  0
 19 20  2  0
 20 21  1  0
 21 22  2  0
 22 23  1  0
 23 24  1  0
 24 25  2  0
 25 26  1  0
 26 27  2  0
 27 28  1  0
 28 29  2  0
 29 30  1  0
 30 31  2  0
 31 32  1  0
 32 33  2  0
 27 34  1  0
 34 35  2  0
 15 36  1  0
 36 37  2  0
 37 38  1  0
 38 39  2  0
 39 40  1  0
 40 41  2  0
 41 42  1  0
 42 43  1  0
 43 44  2  0
 44 45  1  0
 45 46  2  0
 46 47  1  0
 47 48  1  0
 48 49  2  0
 49 50  1  0
 50 51  2  0
 51 52  1  0
 52 53  2  0
 53 54  1  0
 54 55  2  0
 55 56  1  0
 56 57  1  0
 57 58  2  0
 58 59  1  0
 59 60  2  0
 60 61  1  0
 61 62  2  0
 51 63  1  0
 63 64  2  0
  6 65  1  0
 65 66  1  0
 66 67  2  0
 66  3  1  0
 11  7  1  0
 37 12  1  0
 42 38  1  0
 47 43  1  0
 63 48  1  0
 23 19  1  0
 35 24  1  0
 56 52  1  0
 62 57  1  0
 33 28  1  0
M  END
>  <Title>  (1203) 
idABUGgen8

$$$$

     RDKit          2D

 38 43  0  0  0  0  0  0  0  0999 V2000
    3.0000    0.0000    0.0000 C   0  0  0  0  0  0  0  0  0  0  0  0
    1.5000    0.0000    0.0000 C   0  0  0  0  0  0  0  0  0  0  0  0
    0.7500    1.2990    0.0000 C   0  0  0  0  0  0  0  0  0  0  0  0
   -0.7500    1.2990    0.0000 C   0  0  0  0  0  0  0  0  0  0  0  0
   -1.5000    0.0000    0.0000 C   0  0  0  0  0  0  0  0  0  0  0  0
   -3.0000    0.0000    0.0000 C   0  0  0  0  0  0  0  0  0  0  0  0
   -3.8817   -1.2135    0.0000 N   0  0  0  0  0  0  0  0  0  0  0  0
   -5.3083   -0.7500    0.0000 N   0  0  0  0  0  0  0  0  0  0  0  0
   -5.3083    0.7500    0.0000 N   0  0  0  0  0  0  0  0  0  0  0  0
   -3.8817    1.2135    0.0000 N   0  0  0  0  0  0  0  0  0  0  0  0
   -3.4182    2.6401    0.0000 C   0  0  0  0  0  0  0  0  0  0  0  0
   -1.9509    2.9520    0.0000 C   0  0  0  0  0  0  0  0  0  0  0  0
   -1.4874    4.3786    0.0000 C   0  0  0  0  0  0  0  0  0  0  0  0
   -2.4911    5.4933    0.0000 C   0  0  0  0  0  0  0  0  0  0  0  0
   -2.0276    6.9199    0.0000 C   0  0  0  0  0  0  0  0  0  0  0  0
   -2.9093    8.1334    0.0000 C   0  0  0  0  0  0  0  0  0  0  0  0
   -2.0276    9.3469    0.0000 N   0  0  0  0  0  0  0  0  0  0  0  0
   -0.6010    8.8834    0.0000 N   0  0  0  0  0  0  0  0  0  0  0  0
   -0.6010    7.3834    0.0000 N   0  0  0  0  0  0  0  0  0  0  0  0
    0.6125    6.5017    0.0000 C   0  0  0  0  0  0  0  0  0  0  0  0
    0.4557    5.0099    0.0000 C   0  0  0  0  0  0  0  0  0  0  0  0
    1.6693    4.1283    0.0000 C   0  0  0  0  0  0  0  0  0  0  0  0
    3.0396    4.7384    0.0000 C   0  0  0  0  0  0  0  0  0  0  0  0
    3.1964    6.2301    0.0000 C   0  0  0  0  0  0  0  0  0  0  0  0
    1.9829    7.1118    0.0000 C   0  0  0  0  0  0  0  0  0  0  0  0
   -3.9583    5.1814    0.0000 C   0  0  0  0  0  0  0  0  0  0  0  0
   -4.4218    3.7548    0.0000 C   0  0  0  0  0  0  0  0  0  0  0  0
   -5.8891    3.4430    0.0000 C   0  0  0  0  0  0  0  0  0  0  0  0
   -6.8928    4.5577    0.0000 C   0  0  0  0  0  0  0  0  0  0  0  0
   -8.3600    4.2458    0.0000 C   0  0  0  0  0  0  0  0  0  0  0  0
   -8.8235    2.8192    0.0000 C   0  0  0  0  0  0  0  0  0  0  0  0
  -10.2907    2.5074    0.0000 C   0  0  0  0  0  0  0  0  0  0  0  0
   -7.8198    1.7045    0.0000 C   0  0  0  0  0  0  0  0  0  0  0  0
   -8.2833    0.2779    0.0000 O   0  0  0  0  0  0  0  0  0  0  0  0
   -6.3526    2.0164    0.0000 N   0  0  0  0  0  0  0  0  0  0  0  0
   -0.7500   -1.2990    0.0000 C   0  0  0  0  0  0  0  0  0  0  0  0
   -1.5000   -2.5981    0.0000 O   0  0  0  0  0  0  0  0  0  0  0  0
    0.7500   -1.2990    0.0000 N   0  0  0  0  0  0  0  0  0  0  0  0
  1  2  1  0
  2  3  2  0
  3  4  1  0
  4  5  2  0
  5  6  1  0
  6  7  2  0
  7  8  1  0
  8  9  2  0
  9 10  1  0
 10 11  1  0
 11 12  2  0
 12 13  1  0
 13 14  2  0
 14 15  1  0
 15 16  2  0
 16 17  1  0
 17 18  2  0
 18 19  1  0
 19 20  1  0
 20 21  2  0
 21 22  1  0
 22 23  2  0
 23 24  1  0
 24 25  2  0
 14 26  1  0
 26 27  2  0
 27 28  1  0
 28 29  2  0
 29 30  1  0
 30 31  2  0
 31 32  1  0
 31 33  1  0
 33 34  2  0
 33 35  1  0
  5 36  1  0
 36 37  2  0
 36 38  1  0
 38  2  1  0
 10  6  1  0
 27 11  1  0
 35 28  1  0
 19 15  1  0
 25 20  1  0
M  END
>  <Title>  (1204) 
idABUHgen8

$$$$

     RDKit          2D

 30 31  0  0  0  0  0  0  0  0999 V2000
   10.1250    2.9544    0.0000 C   0  0  0  0  0  0  0  0  0  0  0  0
    8.6252    2.9288    0.0000 C   0  0  0  0  0  0  0  0  0  0  0  0
    8.0749    1.5333    0.0000 C   0  0  0  0  0  0  0  0  0  0  0  0
    6.6991    0.9357    0.0000 C   0  0  0  0  0  0  0  0  0  0  0  0
    5.3037    1.4860    0.0000 C   0  0  0  0  0  0  0  0  0  0  0  0
    5.5080    0.0000    0.0000 C   0  0  0  0  0  0  0  0  0  0  0  0
    5.3037   -1.4860    0.0000 C   0  0  0  0  0  0  0  0  0  0  0  0
    4.7061   -2.8618    0.0000 C   0  0  0  0  0  0  0  0  0  0  0  0
    3.7595   -4.0254    0.0000 C   0  0  0  0  0  0  0  0  0  0  0  0
    2.5340   -4.8904    0.0000 C   0  0  0  0  0  0  0  0  0  0  0  0
    1.1206   -5.3928    0.0000 C   0  0  0  0  0  0  0  0  0  0  0  0
   -0.3759   -5.4951    0.0000 C   0  0  0  0  0  0  0  0  0  0  0  0
   -1.8445   -5.1899    0.0000 C   0  0  0  0  0  0  0  0  0  0  0  0
   -3.1763   -4.4998    0.0000 C   0  0  0  0  0  0  0  0  0  0  0  0
   -4.2726   -3.4760    0.0000 C   0  0  0  0  0  0  0  0  0  0  0  0
   -5.0520   -2.1944    0.0000 C   0  0  0  0  0  0  0  0  0  0  0  0
   -5.4567   -0.7500    0.0000 C   0  0  0  0  0  0  0  0  0  0  0  0
   -5.4567    0.7500    0.0000 C   0  0  0  0  0  0  0  0  0  0  0  0
   -5.0520    2.1944    0.0000 C   0  0  0  0  0  0  0  0  0  0  0  0
   -4.2726    3.4760    0.0000 C   0  0  0  0  0  0  0  0  0  0  0  0
   -3.1763    4.4998    0.0000 C   0  0  0  0  0  0  0  0  0  0  0  0
   -1.8445    5.1899    0.0000 C   0  0  0  0  0  0  0  0  0  0  0  0
   -0.3759    5.4951    0.0000 C   0  0  0  0  0  0  0  0  0  0  0  0
    1.1206    5.3928    0.0000 C   0  0  0  0  0  0  0  0  0  0  0  0
    2.5340    4.8904    0.0000 C   0  0  0  0  0  0  0  0  0  0  0  0
    3.7595    4.0254    0.0000 C   0  0  0  0  0  0  0  0  0  0  0  0
    4.7061    2.8618    0.0000 C   0  0  0  0  0  0  0  0  0  0  0  0
    5.2564    4.2573    0.0000 C   0  0  0  0  0  0  0  0  0  0  0  0
    6.6322    4.8549    0.0000 C   0  0  0  0  0  0  0  0  0  0  0  0
    8.0276    4.3046    0.0000 C   0  0  0  0  0  0  0  0  0  0  0  0
  1  2  1  0
  2  3  2  0
  3  4  1  0
  4  5  2  0
  5  6  1  0
  6  7  2  0
  7  8  1  0
  8  9  2  0
  9 10  1  0
 10 11  2  0
 11 12  1  0
 12 13  2  0
 13 14  1  0
 14 15  2  0
 15 16  1  0
 16 17  2  0
 17 18  1  0
 18 19  2  0
 19 20  1  0
 20 21  2  0
 21 22  1  0
 22 23  2  0
 23 24  1  0
 24 25  2  0
 25 26  1  0
 26 27  2  0
 27 28  1  0
 28 29  1  0
 29 30  2  0
 30  2  1  0
 27  5  1  0
M  END
>  <Title>  (1205) 
idABUIgen8

$$$$

     RDKit          2D

 43 48  0  0  0  0  0  0  0  0999 V2000
   -3.8543    5.9191    0.0000 C   0  0  0  0  0  0  0  0  0  0  0  0
   -3.6975    4.4273    0.0000 O   0  0  0  0  0  0  0  0  0  0  0  0
   -2.3272    3.8172    0.0000 C   0  0  0  0  0  0  0  0  0  0  0  0
   -2.0153    2.3500    0.0000 C   0  0  0  0  0  0  0  0  0  0  0  0
   -0.5235    2.1932    0.0000 C   0  0  0  0  0  0  0  0  0  0  0  0
    0.0866    3.5635    0.0000 C   0  0  0  0  0  0  0  0  0  0  0  0
    1.5538    3.8754    0.0000 C   0  0  0  0  0  0  0  0  0  0  0  0
    2.0173    5.3020    0.0000 O   0  0  0  0  0  0  0  0  0  0  0  0
    2.5575    2.7607    0.0000 N   0  0  0  0  0  0  0  0  0  0  0  0
    4.0247    3.0725    0.0000 C   0  0  0  0  0  0  0  0  0  0  0  0
    4.6348    4.4429    0.0000 N   0  0  0  0  0  0  0  0  0  0  0  0
    6.1266    4.2861    0.0000 N   0  0  0  0  0  0  0  0  0  0  0  0
    6.4385    2.8189    0.0000 N   0  0  0  0  0  0  0  0  0  0  0  0
    5.1394    2.0689    0.0000 N   0  0  0  0  0  0  0  0  0  0  0  0
    4.9826    0.5771    0.0000 C   0  0  0  0  0  0  0  0  0  0  0  0
    6.0974   -0.4266    0.0000 C   0  0  0  0  0  0  0  0  0  0  0  0
    5.4873   -1.7969    0.0000 C   0  0  0  0  0  0  0  0  0  0  0  0
    3.9955   -1.6402    0.0000 C   0  0  0  0  0  0  0  0  0  0  0  0
    2.9918   -2.7549    0.0000 C   0  0  0  0  0  0  0  0  0  0  0  0
    3.3037   -4.2221    0.0000 N   0  0  0  0  0  0  0  0  0  0  0  0
    2.0046   -4.9721    0.0000 N   0  0  0  0  0  0  0  0  0  0  0  0
    0.8899   -3.9684    0.0000 N   0  0  0  0  0  0  0  0  0  0  0  0
    1.5000   -2.5981    0.0000 N   0  0  0  0  0  0  0  0  0  0  0  0
    0.7500   -1.2990    0.0000 C   0  0  0  0  0  0  0  0  0  0  0  0
    1.5000    0.0000    0.0000 C   0  0  0  0  0  0  0  0  0  0  0  0
    0.7500    1.2990    0.0000 C   0  0  0  0  0  0  0  0  0  0  0  0
   -0.7500    1.2990    0.0000 C   0  0  0  0  0  0  0  0  0  0  0  0
   -1.5000    0.0000    0.0000 C   0  0  0  0  0  0  0  0  0  0  0  0
   -0.7500   -1.2990    0.0000 C   0  0  0  0  0  0  0  0  0  0  0  0
   -1.5000   -2.5981    0.0000 C   0  0  0  0  0  0  0  0  0  0  0  0
   -0.7500   -3.8971    0.0000 C   0  0  0  0  0  0  0  0  0  0  0  0
   -1.5000   -5.1962    0.0000 C   0  0  0  0  0  0  0  0  0  0  0  0
   -3.0000   -5.1962    0.0000 C   0  0  0  0  0  0  0  0  0  0  0  0
   -3.7500   -6.4952    0.0000 C   0  0  0  0  0  0  0  0  0  0  0  0
   -5.2500   -6.4952    0.0000 O   0  0  0  0  0  0  0  0  0  0  0  0
   -3.0000   -7.7942    0.0000 N   0  0  0  0  0  0  0  0  0  0  0  0
   -3.7500   -9.0933    0.0000 O   0  0  0  0  0  0  0  0  0  0  0  0
   -3.7500   -3.8971    0.0000 N   0  0  0  0  0  0  0  0  0  0  0  0
   -3.0000   -2.5981    0.0000 C   0  0  0  0  0  0  0  0  0  0  0  0
   -3.7500   -1.2990    0.0000 O   0  0  0  0  0  0  0  0  0  0  0  0
    3.6836   -0.1729    0.0000 C   0  0  0  0  0  0  0  0  0  0  0  0
    2.3133    0.4372    0.0000 O   0  0  0  0  0  0  0  0  0  0  0  0
   -1.0281    4.5672    0.0000 N   0  0  0  0  0  0  0  0  0  0  0  0
  1  2  1  0
  2  3  1  0
  3  4  2  0
  4  5  1  0
  5  6  2  0
  6  7  1  0
  7  8  2  0
  7  9  1  0
  9 10  1  0
 10 11  2  0
 11 12  1  0
 12 13  2  0
 13 14  1  0
 14 15  1  0
 15 16  2  0
 16 17  1  0
 17 18  2  0
 18 19  1  0
 19 20  2  0
 20 21  1  0
 21 22  2  0
 22 23  1  0
 23 24  1  0
 24 25  2  0
 25 26  1  0
 26 27  2  0
 27 28  1  0
 28 29  2  0
 29 30  1  0
 30 31  2  0
 31 32  1  0
 32 33  2  0
 33 34  1  0
 34 35  2  0
 34 36  1  0
 36 37  1  0
 33 38  1  0
 38 39  1  0
 39 40  2  0
 18 41  1  0
 41 42  2  0
  6 43  1  0
 43  3  1  0
 14 10  1  0
 41 15  1  0
 23 19  1  0
 29 24  1  0
 39 30  1  0
M  END
>  <Title>  (1206) 
idABUJgen8

$$$$

     RDKit          2D

 25 25  0  0  0  0  0  0  0  0999 V2000
    7.2460    0.0000    0.0000 C   0  0  0  0  0  0  0  0  0  0  0  0
    5.7460    0.0000    0.0000 C   0  0  0  0  0  0  0  0  0  0  0  0
    5.5502   -1.4872    0.0000 C   0  0  0  0  0  0  0  0  0  0  0  0
    4.9762   -2.8730    0.0000 C   0  0  0  0  0  0  0  0  0  0  0  0
    4.0630   -4.0630    0.0000 C   0  0  0  0  0  0  0  0  0  0  0  0
    2.8730   -4.9762    0.0000 C   0  0  0  0  0  0  0  0  0  0  0  0
    1.4872   -5.5502    0.0000 C   0  0  0  0  0  0  0  0  0  0  0  0
   -0.0000   -5.7460    0.0000 C   0  0  0  0  0  0  0  0  0  0  0  0
   -1.4872   -5.5502    0.0000 C   0  0  0  0  0  0  0  0  0  0  0  0
   -2.8730   -4.9762    0.0000 C   0  0  0  0  0  0  0  0  0  0  0  0
   -4.0630   -4.0630    0.0000 C   0  0  0  0  0  0  0  0  0  0  0  0
   -4.9762   -2.8730    0.0000 C   0  0  0  0  0  0  0  0  0  0  0  0
   -5.5502   -1.4872    0.0000 C   0  0  0  0  0  0  0  0  0  0  0  0
   -5.7460    0.0000    0.0000 C   0  0  0  0  0  0  0  0  0  0  0  0
   -5.5502    1.4872    0.0000 C   0  0  0  0  0  0  0  0  0  0  0  0
   -4.9762    2.8730    0.0000 C   0  0  0  0  0  0  0  0  0  0  0  0
   -4.0630    4.0630    0.0000 C   0  0  0  0  0  0  0  0  0  0  0  0
   -2.8730    4.9762    0.0000 C   0  0  0  0  0  0  0  0  0  0  0  0
   -1.4872    5.5502    0.0000 C   0  0  0  0  0  0  0  0  0  0  0  0
    0.0000    5.7460    0.0000 C   0  0  0  0  0  0  0  0  0  0  0  0
    1.4872    5.5502    0.0000 C   0  0  0  0  0  0  0  0  0  0  0  0
    2.8730    4.9762    0.0000 C   0  0  0  0  0  0  0  0  0  0  0  0
    4.0630    4.0630    0.0000 C   0  0  0  0  0  0  0  0  0  0  0  0
    4.9762    2.8730    0.0000 C   0  0  0  0  0  0  0  0  0  0  0  0
    5.5502    1.4872    0.0000 N   0  0  0  0  0  0  0  0  0  0  0  0
  1  2  1  0
  2  3  2  0
  3  4  1  0
  4  5  2  0
  5  6  1  0
  6  7  2  0
  7  8  1  0
  8  9  2  0
  9 10  1  0
 10 11  2  0
 11 12  1  0
 12 13  2  0
 13 14  1  0
 14 15  2  0
 15 16  1  0
 16 17  2  0
 17 18  1  0
 18 19  2  0
 19 20  1  0
 20 21  2  0
 21 22  1  0
 22 23  2  0
 23 24  1  0
 24 25  1  0
 25  2  1  0
M  END
>  <Title>  (1207) 
idABUKgen8

$$$$

     RDKit          2D

 56 63  0  0  0  0  0  0  0  0999 V2000
    3.7500    1.2990    0.0000 C   0  0  0  0  0  0  0  0  0  0  0  0
    3.0000    0.0000    0.0000 O   0  0  0  0  0  0  0  0  0  0  0  0
    1.5000    0.0000    0.0000 C   0  0  0  0  0  0  0  0  0  0  0  0
    0.7500    1.2990    0.0000 C   0  0  0  0  0  0  0  0  0  0  0  0
   -0.7500    1.2990    0.0000 C   0  0  0  0  0  0  0  0  0  0  0  0
   -1.5000    0.0000    0.0000 C   0  0  0  0  0  0  0  0  0  0  0  0
   -3.0000    0.0000    0.0000 C   0  0  0  0  0  0  0  0  0  0  0  0
   -3.8817   -1.2135    0.0000 N   0  0  0  0  0  0  0  0  0  0  0  0
   -5.3083   -0.7500    0.0000 N   0  0  0  0  0  0  0  0  0  0  0  0
   -5.3083    0.7500    0.0000 N   0  0  0  0  0  0  0  0  0  0  0  0
   -3.8817    1.2135    0.0000 N   0  0  0  0  0  0  0  0  0  0  0  0
   -3.4182    2.6401    0.0000 C   0  0  0  0  0  0  0  0  0  0  0  0
   -1.9509    2.9520    0.0000 C   0  0  0  0  0  0  0  0  0  0  0  0
   -1.4874    4.3786    0.0000 C   0  0  0  0  0  0  0  0  0  0  0  0
   -2.4911    5.4933    0.0000 C   0  0  0  0  0  0  0  0  0  0  0  0
   -2.0276    6.9199    0.0000 C   0  0  0  0  0  0  0  0  0  0  0  0
   -3.0313    8.0346    0.0000 O   0  0  0  0  0  0  0  0  0  0  0  0
   -0.5604    7.2317    0.0000 N   0  0  0  0  0  0  0  0  0  0  0  0
   -0.0968    8.6583    0.0000 C   0  0  0  0  0  0  0  0  0  0  0  0
   -0.9785    9.8718    0.0000 N   0  0  0  0  0  0  0  0  0  0  0  0
   -0.0968   11.0854    0.0000 N   0  0  0  0  0  0  0  0  0  0  0  0
    1.3298   10.6218    0.0000 N   0  0  0  0  0  0  0  0  0  0  0  0
    1.3298    9.1218    0.0000 N   0  0  0  0  0  0  0  0  0  0  0  0
    2.5433    8.2402    0.0000 C   0  0  0  0  0  0  0  0  0  0  0  0
    2.3865    6.7484    0.0000 C   0  0  0  0  0  0  0  0  0  0  0  0
    3.6000    5.8667    0.0000 C   0  0  0  0  0  0  0  0  0  0  0  0
    4.9703    6.4768    0.0000 C   0  0  0  0  0  0  0  0  0  0  0  0
    6.1839    5.5951    0.0000 C   0  0  0  0  0  0  0  0  0  0  0  0
    6.0271    4.1033    0.0000 C   0  0  0  0  0  0  0  0  0  0  0  0
    7.2406    3.2217    0.0000 C   0  0  0  0  0  0  0  0  0  0  0  0
    8.6109    3.8318    0.0000 C   0  0  0  0  0  0  0  0  0  0  0  0
    8.7677    5.3236    0.0000 C   0  0  0  0  0  0  0  0  0  0  0  0
    7.5542    6.2052    0.0000 C   0  0  0  0  0  0  0  0  0  0  0  0
    5.1271    7.9686    0.0000 C   0  0  0  0  0  0  0  0  0  0  0  0
    3.9136    8.8503    0.0000 C   0  0  0  0  0  0  0  0  0  0  0  0
    4.0704   10.3421    0.0000 C   0  0  0  0  0  0  0  0  0  0  0  0
    5.4407   10.9522    0.0000 C   0  0  0  0  0  0  0  0  0  0  0  0
    5.5975   12.4439    0.0000 C   0  0  0  0  0  0  0  0  0  0  0  0
    4.3840   13.3256    0.0000 C   0  0  0  0  0  0  0  0  0  0  0  0
    3.0137   12.7155    0.0000 C   0  0  0  0  0  0  0  0  0  0  0  0
    2.8569   11.2237    0.0000 C   0  0  0  0  0  0  0  0  0  0  0  0
   -3.9583    5.1814    0.0000 C   0  0  0  0  0  0  0  0  0  0  0  0
   -4.4218    3.7548    0.0000 C   0  0  0  0  0  0  0  0  0  0  0  0
   -5.8891    3.4430    0.0000 C   0  0  0  0  0  0  0  0  0  0  0  0
   -6.8928    4.5577    0.0000 C   0  0  0  0  0  0  0  0  0  0  0  0
   -8.3600    4.2458    0.0000 C   0  0  0  0  0  0  0  0  0  0  0  0
   -8.8235    2.8192    0.0000 C   0  0  0  0  0  0  0  0  0  0  0  0
  -10.2907    2.5074    0.0000 C   0  0  0  0  0  0  0  0  0  0  0  0
  -10.7543    1.0808    0.0000 O   0  0  0  0  0  0  0  0  0  0  0  0
  -11.2944    3.6221    0.0000 N   0  0  0  0  0  0  0  0  0  0  0  0
  -12.7617    3.3102    0.0000 O   0  0  0  0  0  0  0  0  0  0  0  0
   -7.8198    1.7045    0.0000 C   0  0  0  0  0  0  0  0  0  0  0  0
   -6.3526    2.0164    0.0000 C   0  0  0  0  0  0  0  0  0  0  0  0
   -0.7500   -1.2990    0.0000 C   0  0  0  0  0  0  0  0  0  0  0  0
   -1.5000   -2.5981    0.0000 O   0  0  0  0  0  0  0  0  0  0  0  0
    0.7500   -1.2990    0.0000 N   0  0  0  0  0  0  0  0  0  0  0  0
  1  2  1  0
  2  3  1  0
  3  4  2  0
  4  5  1  0
  5  6  2  0
  6  7  1  0
  7  8  2  0
  8  9  1  0
  9 10  2  0
 10 11  1  0
 11 12  1  0
 12 13  2  0
 13 14  1  0
 14 15  2  0
 15 16  1  0
 16 17  2  0
 16 18  1  0
 18 19  1  0
 19 20  2  0
 20 21  1  0
 21 22  2  0
 22 23  1  0
 23 24  1  0
 24 25  2  0
 25 26  1  0
 26 27  2  0
 27 28  1  0
 28 29  2  0
 29 30  1  0
 30 31  2  0
 31 32  1  0
 32 33  2  0
 27 34  1  0
 34 35  2  0
 35 36  1  0
 36 37  2  0
 37 38  1  0
 38 39  2  0
 39 40  1  0
 40 41  2  0
 15 42  1  0
 42 43  2  0
 43 44  1  0
 44 45  2  0
 45 46  1  0
 46 47  2  0
 47 48  1  0
 48 49  2  0
 48 50  1  0
 50 51  1  0
 47 52  1  0
 52 53  1  0
  6 54  1  0
 54 55  2  0
 54 56  1  0
 56  3  1  0
 11  7  1  0
 43 12  1  0
 53 44  1  0
 23 19  1  0
 35 24  1  0
 41 36  1  0
 33 28  1  0
M  END
>  <Title>  (1208) 
idABULgen8

$$$$

     RDKit          2D

 25 25  0  0  0  0  0  0  0  0999 V2000
    7.5200   -1.2990    0.0000 C   0  0  0  0  0  0  0  0  0  0  0  0
    6.7700    0.0000    0.0000 C   0  0  0  0  0  0  0  0  0  0  0  0
    5.2700    0.0000    0.0000 C   0  0  0  0  0  0  0  0  0  0  0  0
    5.0565   -1.4847    0.0000 C   0  0  0  0  0  0  0  0  0  0  0  0
    4.4334   -2.8492    0.0000 C   0  0  0  0  0  0  0  0  0  0  0  0
    3.4511   -3.9828    0.0000 C   0  0  0  0  0  0  0  0  0  0  0  0
    2.1892   -4.7938    0.0000 C   0  0  0  0  0  0  0  0  0  0  0  0
    0.7500   -5.2164    0.0000 C   0  0  0  0  0  0  0  0  0  0  0  0
   -0.7500   -5.2164    0.0000 C   0  0  0  0  0  0  0  0  0  0  0  0
   -2.1892   -4.7938    0.0000 C   0  0  0  0  0  0  0  0  0  0  0  0
   -3.4511   -3.9828    0.0000 C   0  0  0  0  0  0  0  0  0  0  0  0
   -4.4334   -2.8492    0.0000 C   0  0  0  0  0  0  0  0  0  0  0  0
   -5.0565   -1.4847    0.0000 C   0  0  0  0  0  0  0  0  0  0  0  0
   -5.2700    0.0000    0.0000 C   0  0  0  0  0  0  0  0  0  0  0  0
   -5.0565    1.4847    0.0000 C   0  0  0  0  0  0  0  0  0  0  0  0
   -4.4334    2.8492    0.0000 C   0  0  0  0  0  0  0  0  0  0  0  0
   -3.4511    3.9828    0.0000 C   0  0  0  0  0  0  0  0  0  0  0  0
   -2.1892    4.7938    0.0000 C   0  0  0  0  0  0  0  0  0  0  0  0
   -0.7500    5.2164    0.0000 C   0  0  0  0  0  0  0  0  0  0  0  0
    0.7500    5.2164    0.0000 C   0  0  0  0  0  0  0  0  0  0  0  0
    2.1892    4.7938    0.0000 C   0  0  0  0  0  0  0  0  0  0  0  0
    3.4511    3.9828    0.0000 C   0  0  0  0  0  0  0  0  0  0  0  0
    4.4334    2.8492    0.0000 C   0  0  0  0  0  0  0  0  0  0  0  0
    5.0565    1.4847    0.0000 C   0  0  0  0  0  0  0  0  0  0  0  0
    6.4958    1.9073    0.0000 O   0  0  0  0  0  0  0  0  0  0  0  0
  1  2  1  0
  2  3  1  0
  3  4  2  0
  4  5  1  0
  5  6  2  0
  6  7  1  0
  7  8  2  0
  8  9  1  0
  9 10  2  0
 10 11  1  0
 11 12  2  0
 12 13  1  0
 13 14  2  0
 14 15  1  0
 15 16  2  0
 16 17  1  0
 17 18  2  0
 18 19  1  0
 19 20  2  0
 20 21  1  0
 21 22  2  0
 22 23  1  0
 23 24  2  0
 24 25  1  0
 24  3  1  0
M  END
>  <Title>  (1209) 
idABUMgen8

$$$$

     RDKit          2D

 28 28  0  0  0  0  0  0  0  0999 V2000
    8.4722   -1.2990    0.0000 C   0  0  0  0  0  0  0  0  0  0  0  0
    7.7222    0.0000    0.0000 O   0  0  0  0  0  0  0  0  0  0  0  0
    6.2222    0.0000    0.0000 C   0  0  0  0  0  0  0  0  0  0  0  0
    6.0414   -1.4891    0.0000 C   0  0  0  0  0  0  0  0  0  0  0  0
    5.5095   -2.8916    0.0000 C   0  0  0  0  0  0  0  0  0  0  0  0
    4.6574   -4.1261    0.0000 C   0  0  0  0  0  0  0  0  0  0  0  0
    3.5346   -5.1207    0.0000 C   0  0  0  0  0  0  0  0  0  0  0  0
    2.2064   -5.8178    0.0000 C   0  0  0  0  0  0  0  0  0  0  0  0
    0.7500   -6.1768    0.0000 C   0  0  0  0  0  0  0  0  0  0  0  0
   -0.7500   -6.1768    0.0000 C   0  0  0  0  0  0  0  0  0  0  0  0
   -2.2064   -5.8178    0.0000 C   0  0  0  0  0  0  0  0  0  0  0  0
   -3.5346   -5.1207    0.0000 C   0  0  0  0  0  0  0  0  0  0  0  0
   -4.6574   -4.1261    0.0000 C   0  0  0  0  0  0  0  0  0  0  0  0
   -5.5095   -2.8916    0.0000 C   0  0  0  0  0  0  0  0  0  0  0  0
   -6.0414   -1.4891    0.0000 C   0  0  0  0  0  0  0  0  0  0  0  0
   -6.2222    0.0000    0.0000 C   0  0  0  0  0  0  0  0  0  0  0  0
   -6.0414    1.4891    0.0000 C   0  0  0  0  0  0  0  0  0  0  0  0
   -5.5095    2.8916    0.0000 C   0  0  0  0  0  0  0  0  0  0  0  0
   -4.6574    4.1261    0.0000 C   0  0  0  0  0  0  0  0  0  0  0  0
   -3.5346    5.1207    0.0000 C   0  0  0  0  0  0  0  0  0  0  0  0
   -2.2064    5.8178    0.0000 C   0  0  0  0  0  0  0  0  0  0  0  0
   -0.7500    6.1768    0.0000 C   0  0  0  0  0  0  0  0  0  0  0  0
    0.7500    6.1768    0.0000 C   0  0  0  0  0  0  0  0  0  0  0  0
    2.2064    5.8178    0.0000 C   0  0  0  0  0  0  0  0  0  0  0  0
    3.5346    5.1207    0.0000 C   0  0  0  0  0  0  0  0  0  0  0  0
    4.6574    4.1261    0.0000 C   0  0  0  0  0  0  0  0  0  0  0  0
    5.5095    2.8916    0.0000 C   0  0  0  0  0  0  0  0  0  0  0  0
    6.0414    1.4891    0.0000 C   0  0  0  0  0  0  0  0  0  0  0  0
  1  2  1  0
  2  3  1  0
  3  4  2  0
  4  5  1  0
  5  6  2  0
  6  7  1  0
  7  8  2  0
  8  9  1  0
  9 10  2  0
 10 11  1  0
 11 12  2  0
 12 13  1  0
 13 14  2  0
 14 15  1  0
 15 16  2  0
 16 17  1  0
 17 18  2  0
 18 19  1  0
 19 20  2  0
 20 21  1  0
 21 22  2  0
 22 23  1  0
 23 24  1  0
 24 25  1  0
 25 26  1  0
 26 27  1  0
 27 28  1  0
 28  3  1  0
M  END
>  <Title>  (1210) 
idABUNgen8

$$$$

     RDKit          2D

 47 54  0  0  0  0  0  0  0  0999 V2000
    0.6798   -0.5953    0.0000 C   0  0  0  0  0  0  0  0  0  0  0  0
    0.8458   -1.4654    0.0000 C   0  0  0  0  0  0  0  0  0  0  0  0
   -0.3596   -2.3580    0.0000 C   0  0  0  0  0  0  0  0  0  0  0  0
   -0.4133   -3.8571    0.0000 C   0  0  0  0  0  0  0  0  0  0  0  0
    0.7252   -4.8337    0.0000 C   0  0  0  0  0  0  0  0  0  0  0  0
    0.3393   -6.2832    0.0000 C   0  0  0  0  0  0  0  0  0  0  0  0
    1.2851   -7.4474    0.0000 N   0  0  0  0  0  0  0  0  0  0  0  0
    0.4702   -8.7067    0.0000 N   0  0  0  0  0  0  0  0  0  0  0  0
   -0.9793   -8.3208    0.0000 N   0  0  0  0  0  0  0  0  0  0  0  0
   -1.0602   -6.8230    0.0000 N   0  0  0  0  0  0  0  0  0  0  0  0
   -2.3195   -6.0080    0.0000 C   0  0  0  0  0  0  0  0  0  0  0  0
   -3.7190   -6.5478    0.0000 C   0  0  0  0  0  0  0  0  0  0  0  0
   -4.6649   -5.3836    0.0000 C   0  0  0  0  0  0  0  0  0  0  0  0
   -3.8500   -4.1243    0.0000 C   0  0  0  0  0  0  0  0  0  0  0  0
   -4.3897   -2.7248    0.0000 C   0  0  0  0  0  0  0  0  0  0  0  0
   -5.8393   -2.3389    0.0000 N   0  0  0  0  0  0  0  0  0  0  0  0
   -5.9202   -0.8411    0.0000 N   0  0  0  0  0  0  0  0  0  0  0  0
   -4.5207   -0.3013    0.0000 N   0  0  0  0  0  0  0  0  0  0  0  0
   -3.5748   -1.4655    0.0000 N   0  0  0  0  0  0  0  0  0  0  0  0
   -2.0770   -1.3846    0.0000 C   0  0  0  0  0  0  0  0  0  0  0  0
   -1.5000    0.0000    0.0000 C   0  0  0  0  0  0  0  0  0  0  0  0
   -0.0577    0.4122    0.0000 C   0  0  0  0  0  0  0  0  0  0  0  0
    1.6830    0.0036    0.0000 C   0  0  0  0  0  0  0  0  0  0  0  0
    0.9271    0.1779    0.0000 C   0  0  0  0  0  0  0  0  0  0  0  0
    2.8374    2.2148    0.0000 O   0  0  0  0  0  0  0  0  0  0  0  0
    0.1184    0.9117    0.0000 N   0  0  0  0  0  0  0  0  0  0  0  0
    0.7741    3.8747    0.0000 C   0  0  0  0  0  0  0  0  0  0  0  0
   -0.2619    4.9595    0.0000 C   0  0  0  0  0  0  0  0  0  0  0  0
    0.1595    6.3990    0.0000 C   0  0  0  0  0  0  0  0  0  0  0  0
    1.6169    6.7539    0.0000 C   0  0  0  0  0  0  0  0  0  0  0  0
    2.6530    5.6691    0.0000 C   0  0  0  0  0  0  0  0  0  0  0  0
    2.2315    4.2295    0.0000 C   0  0  0  0  0  0  0  0  0  0  0  0
    0.2053   -0.1829    0.0000 N   0  0  0  0  0  0  0  0  0  0  0  0
   -0.6696    0.4806    0.0000 N   0  0  0  0  0  0  0  0  0  0  0  0
   -0.4877   -0.5961    0.0000 N   0  0  0  0  0  0  0  0  0  0  0  0
   -0.7485   -1.3267    0.0000 C   0  0  0  0  0  0  0  0  0  0  0  0
    0.7428   -1.1651    0.0000 C   0  0  0  0  0  0  0  0  0  0  0  0
    1.6283   -2.3758    0.0000 N   0  0  0  0  0  0  0  0  0  0  0  0
    1.0226   -3.7481    0.0000 N   0  0  0  0  0  0  0  0  0  0  0  0
   -0.4687   -3.9097    0.0000 N   0  0  0  0  0  0  0  0  0  0  0  0
   -1.3542   -2.6990    0.0000 N   0  0  0  0  0  0  0  0  0  0  0  0
   -2.4004   -4.5102    0.0000 C   0  0  0  0  0  0  0  0  0  0  0  0
   -0.9284   -4.2218    0.0000 O   0  0  0  0  0  0  0  0  0  0  0  0
    2.1986   -4.5524    0.0000 N   0  0  0  0  0  0  0  0  0  0  0  0
    2.8974   -3.2252    0.0000 C   0  0  0  0  0  0  0  0  0  0  0  0
    4.3964   -3.2788    0.0000 O   0  0  0  0  0  0  0  0  0  0  0  0
    2.2953   -1.8513    0.0000 C   0  0  0  0  0  0  0  0  0  0  0  0
  1  2  1  0
  2  3  2  0
  3  4  1  0
  4  5  2  0
  5  6  1  0
  6  7  2  0
  7  8  1  0
  8  9  2  0
  9 10  1  0
 10 11  1  0
 11 12  2  0
 12 13  1  0
 13 14  2  0
 14 15  1  0
 15 16  2  0
 16 17  1  0
 17 18  2  0
 18 19  1  0
 19 20  1  0
 20 21  2  0
 21 22  1  0
 22 23  2  0
 23 24  1  0
 24 25  2  0
 24 26  1  0
 26 27  1  0
 27 28  2  0
 28 29  1  0
 29 30  2  0
 30 31  1  0
 31 32  2  0
 26 33  1  0
 33 34  2  0
 34 35  1  0
 35 36  2  0
 36 37  1  0
 37 38  2  0
 38 39  1  0
 39 40  2  0
 40 41  1  0
 14 42  1  0
 42 43  2  0
  5 44  1  0
 44 45  1  0
 45 46  2  0
 45 47  1  0
 47  2  1  0
 10  6  1  0
 42 11  1  0
 19 15  1  0
 41 20  1  0
 37 23  1  0
 32 27  1  0
 41 36  1  0
M  END
>  <Title>  (1211) 
idABUOgen8

$$$$

     RDKit          2D

 46 52  0  0  0  0  0  0  0  0999 V2000
    5.2500   -1.2990    0.0000 C   0  0  0  0  0  0  0  0  0  0  0  0
    3.7500   -1.2990    0.0000 C   0  0  0  0  0  0  0  0  0  0  0  0
    3.0000   -2.5981    0.0000 O   0  0  0  0  0  0  0  0  0  0  0  0
    3.0000   -0.0000    0.0000 N   0  0  0  0  0  0  0  0  0  0  0  0
    1.5000   -0.0000    0.0000 C   0  0  0  0  0  0  0  0  0  0  0  0
    0.7500   -1.2990    0.0000 C   0  0  0  0  0  0  0  0  0  0  0  0
   -0.7500   -1.2990    0.0000 C   0  0  0  0  0  0  0  0  0  0  0  0
   -1.5000   -0.0000    0.0000 C   0  0  0  0  0  0  0  0  0  0  0  0
   -3.0000   -0.0000    0.0000 C   0  0  0  0  0  0  0  0  0  0  0  0
   -3.8817   -1.2135    0.0000 N   0  0  0  0  0  0  0  0  0  0  0  0
   -5.3083   -0.7500    0.0000 N   0  0  0  0  0  0  0  0  0  0  0  0
   -5.3083    0.7500    0.0000 N   0  0  0  0  0  0  0  0  0  0  0  0
   -3.8817    1.2135    0.0000 N   0  0  0  0  0  0  0  0  0  0  0  0
   -3.4182    2.6401    0.0000 C   0  0  0  0  0  0  0  0  0  0  0  0
   -1.9509    2.9520    0.0000 C   0  0  0  0  0  0  0  0  0  0  0  0
   -1.4874    4.3786    0.0000 C   0  0  0  0  0  0  0  0  0  0  0  0
   -2.4911    5.4933    0.0000 C   0  0  0  0  0  0  0  0  0  0  0  0
   -2.0276    6.9199    0.0000 C   0  0  0  0  0  0  0  0  0  0  0  0
   -0.5604    7.2317    0.0000 C   0  0  0  0  0  0  0  0  0  0  0  0
   -0.0968    8.6583    0.0000 C   0  0  0  0  0  0  0  0  0  0  0  0
   -1.1005    9.7730    0.0000 C   0  0  0  0  0  0  0  0  0  0  0  0
   -2.5677    9.4612    0.0000 C   0  0  0  0  0  0  0  0  0  0  0  0
   -3.0313    8.0346    0.0000 C   0  0  0  0  0  0  0  0  0  0  0  0
   -4.4985    7.7227    0.0000 C   0  0  0  0  0  0  0  0  0  0  0  0
   -5.5022    8.8374    0.0000 C   0  0  0  0  0  0  0  0  0  0  0  0
   -6.9694    8.5256    0.0000 C   0  0  0  0  0  0  0  0  0  0  0  0
   -7.4329    7.0990    0.0000 C   0  0  0  0  0  0  0  0  0  0  0  0
   -6.4292    5.9843    0.0000 C   0  0  0  0  0  0  0  0  0  0  0  0
   -4.9620    6.2961    0.0000 C   0  0  0  0  0  0  0  0  0  0  0  0
   -3.9583    5.1814    0.0000 C   0  0  0  0  0  0  0  0  0  0  0  0
   -4.4218    3.7548    0.0000 C   0  0  0  0  0  0  0  0  0  0  0  0
   -5.8891    3.4430    0.0000 C   0  0  0  0  0  0  0  0  0  0  0  0
   -7.0038    4.4467    0.0000 N   0  0  0  0  0  0  0  0  0  0  0  0
   -8.3028    3.6967    0.0000 N   0  0  0  0  0  0  0  0  0  0  0  0
   -7.9910    2.2294    0.0000 N   0  0  0  0  0  0  0  0  0  0  0  0
   -6.4992    2.0726    0.0000 N   0  0  0  0  0  0  0  0  0  0  0  0
   -5.7492    0.7736    0.0000 C   0  0  0  0  0  0  0  0  0  0  0  0
   -4.2492    0.7736    0.0000 C   0  0  0  0  0  0  0  0  0  0  0  0
   -3.4992   -0.5254    0.0000 C   0  0  0  0  0  0  0  0  0  0  0  0
   -4.2492   -1.8245    0.0000 C   0  0  0  0  0  0  0  0  0  0  0  0
   -3.4992   -3.1235    0.0000 C   0  0  0  0  0  0  0  0  0  0  0  0
   -5.7492   -1.8245    0.0000 C   0  0  0  0  0  0  0  0  0  0  0  0
   -6.4992   -3.1235    0.0000 O   0  0  0  0  0  0  0  0  0  0  0  0
   -6.4992   -0.5254    0.0000 N   0  0  0  0  0  0  0  0  0  0  0  0
   -0.7500    1.2990    0.0000 N   0  0  0  0  0  0  0  0  0  0  0  0
    0.7500    1.2990    0.0000 N   0  0  0  0  0  0  0  0  0  0  0  0
  1  2  1  0
  2  3  2  0
  2  4  1  0
  4  5  1  0
  5  6  2  0
  6  7  1  0
  7  8  2  0
  8  9  1  0
  9 10  2  0
 10 11  1  0
 11 12  2  0
 12 13  1  0
 13 14  1  0
 14 15  2  0
 15 16  1  0
 16 17  2  0
 17 18  1  0
 18 19  2  0
 19 20  1  0
 20 21  2  0
 21 22  1  0
 22 23  2  0
 23 24  1  0
 24 25  2  0
 25 26  1  0
 26 27  2  0
 27 28  1  0
 28 29  2  0
 17 30  1  0
 30 31  2  0
 31 32  1  0
 32 33  2  0
 33 34  1  0
 34 35  2  0
 35 36  1  0
 36 37  1  0
 37 38  2  0
 38 39  1  0
 39 40  2  0
 40 41  1  0
 40 42  1  0
 42 43  2  0
 42 44  1  0
  8 45  1  0
 45 46  2  0
 46  5  1  0
 13  9  1  0
 31 14  1  0
 36 32  1  0
 44 37  1  0
 23 18  1  0
 29 24  1  0
M  END
>  <Title>  (1212) 
idABUPgen8

$$$$

     RDKit          2D

 52 57  0  0  0  0  0  0  0  0999 V2000
    5.8573   -1.2990    0.0000 C   0  0  0  0  0  0  0  0  0  0  0  0
    5.1073    0.0000    0.0000 O   0  0  0  0  0  0  0  0  0  0  0  0
    3.6073    0.0000    0.0000 C   0  0  0  0  0  0  0  0  0  0  0  0
    3.2954    1.4672    0.0000 C   0  0  0  0  0  0  0  0  0  0  0  0
    2.4138    2.6807    0.0000 C   0  0  0  0  0  0  0  0  0  0  0  0
    1.1147    3.4307    0.0000 C   0  0  0  0  0  0  0  0  0  0  0  0
   -0.3771    3.5875    0.0000 C   0  0  0  0  0  0  0  0  0  0  0  0
   -1.8037    3.1240    0.0000 C   0  0  0  0  0  0  0  0  0  0  0  0
   -2.9184    2.1203    0.0000 C   0  0  0  0  0  0  0  0  0  0  0  0
   -3.5285    0.7500    0.0000 C   0  0  0  0  0  0  0  0  0  0  0  0
   -3.5285   -0.7500    0.0000 C   0  0  0  0  0  0  0  0  0  0  0  0
   -2.9184   -2.1203    0.0000 C   0  0  0  0  0  0  0  0  0  0  0  0
   -1.8037   -3.1240    0.0000 C   0  0  0  0  0  0  0  0  0  0  0  0
   -0.3771   -3.5875    0.0000 C   0  0  0  0  0  0  0  0  0  0  0  0
    1.1147   -3.4307    0.0000 C   0  0  0  0  0  0  0  0  0  0  0  0
    2.4138   -2.6807    0.0000 C   0  0  0  0  0  0  0  0  0  0  0  0
    3.4175   -3.7955    0.0000 O   0  0  0  0  0  0  0  0  0  0  0  0
    2.9539   -5.2220    0.0000 C   0  0  0  0  0  0  0  0  0  0  0  0
    1.4867   -5.5339    0.0000 O   0  0  0  0  0  0  0  0  0  0  0  0
    3.9576   -6.3368    0.0000 N   0  0  0  0  0  0  0  0  0  0  0  0
    3.4941   -7.7634    0.0000 C   0  0  0  0  0  0  0  0  0  0  0  0
    4.4978   -8.8781    0.0000 C   0  0  0  0  0  0  0  0  0  0  0  0
    5.9650   -8.5662    0.0000 C   0  0  0  0  0  0  0  0  0  0  0  0
    6.4285   -7.1396    0.0000 C   0  0  0  0  0  0  0  0  0  0  0  0
    5.4248   -6.0249    0.0000 C   0  0  0  0  0  0  0  0  0  0  0  0
    5.8884   -4.5983    0.0000 C   0  0  0  0  0  0  0  0  0  0  0  0
    5.0067   -3.3848    0.0000 C   0  0  0  0  0  0  0  0  0  0  0  0
    5.8884   -2.1713    0.0000 C   0  0  0  0  0  0  0  0  0  0  0  0
    7.3150   -2.6348    0.0000 C   0  0  0  0  0  0  0  0  0  0  0  0
    8.5285   -1.7531    0.0000 C   0  0  0  0  0  0  0  0  0  0  0  0
    8.3717   -0.2613    0.0000 O   0  0  0  0  0  0  0  0  0  0  0  0
    9.8988   -2.3632    0.0000 N   0  0  0  0  0  0  0  0  0  0  0  0
   11.1123   -1.4815    0.0000 C   0  0  0  0  0  0  0  0  0  0  0  0
   11.1123    0.0185    0.0000 N   0  0  0  0  0  0  0  0  0  0  0  0
   12.5389    0.4820    0.0000 N   0  0  0  0  0  0  0  0  0  0  0  0
   13.4206   -0.7315    0.0000 N   0  0  0  0  0  0  0  0  0  0  0  0
   12.5389   -1.9451    0.0000 N   0  0  0  0  0  0  0  0  0  0  0  0
   13.0024   -3.3716    0.0000 C   0  0  0  0  0  0  0  0  0  0  0  0
   11.9987   -4.4864    0.0000 C   0  0  0  0  0  0  0  0  0  0  0  0
   12.4623   -5.9129    0.0000 C   0  0  0  0  0  0  0  0  0  0  0  0
   13.9295   -6.2248    0.0000 C   0  0  0  0  0  0  0  0  0  0  0  0
   14.3930   -7.6514    0.0000 C   0  0  0  0  0  0  0  0  0  0  0  0
   13.3893   -8.7661    0.0000 C   0  0  0  0  0  0  0  0  0  0  0  0
   13.8528  -10.1927    0.0000 C   0  0  0  0  0  0  0  0  0  0  0  0
   15.3201  -10.5046    0.0000 C   0  0  0  0  0  0  0  0  0  0  0  0
   16.3238   -9.3899    0.0000 C   0  0  0  0  0  0  0  0  0  0  0  0
   15.8602   -7.9633    0.0000 C   0  0  0  0  0  0  0  0  0  0  0  0
   14.9332   -5.1101    0.0000 C   0  0  0  0  0  0  0  0  0  0  0  0
   14.4697   -3.6835    0.0000 C   0  0  0  0  0  0  0  0  0  0  0  0
    7.3150   -4.1348    0.0000 C   0  0  0  0  0  0  0  0  0  0  0  0
    8.5285   -5.0165    0.0000 O   0  0  0  0  0  0  0  0  0  0  0  0
    3.2954   -1.4672    0.0000 N   0  0  0  0  0  0  0  0  0  0  0  0
  1  2  1  0
  2  3  1  0
  3  4  2  0
  4  5  1  0
  5  6  2  0
  6  7  1  0
  7  8  2  0
  8  9  1  0
  9 10  2  0
 10 11  1  0
 11 12  2  0
 12 13  1  0
 13 14  2  0
 14 15  1  0
 15 16  2  0
 16 17  1  0
 17 18  1  0
 18 19  2  0
 18 20  1  0
 20 21  1  0
 21 22  1  0
 22 23  1  0
 23 24  1  0
 24 25  1  0
 25 26  1  0
 26 27  2  0
 27 28  1  0
 28 29  2  0
 29 30  1  0
 30 31  2  0
 30 32  1  0
 32 33  1  0
 33 34  2  0
 34 35  1  0
 35 36  2  0
 36 37  1  0
 37 38  1  0
 38 39  2  0
 39 40  1  0
 40 41  2  0
 41 42  1  0
 42 43  2  0
 43 44  1  0
 44 45  2  0
 45 46  1  0
 46 47  2  0
 41 48  1  0
 48 49  2  0
 29 50  1  0
 50 51  2  0
 16 52  1  0
 52  3  1  0
 25 20  1  0
 50 26  1  0
 37 33  1  0
 49 38  1  0
 47 42  1  0
M  END
>  <Title>  (1213) 
idABUQgen8

$$$$

     RDKit          2D

 19 19  0  0  0  0  0  0  0  0999 V2000
    5.8191    0.0000    0.0000 C   0  0  0  0  0  0  0  0  0  0  0  0
    4.3191    0.0000    0.0000 C   0  0  0  0  0  0  0  0  0  0  0  0
    4.0586   -1.4772    0.0000 C   0  0  0  0  0  0  0  0  0  0  0  0
    3.3086   -2.7762    0.0000 C   0  0  0  0  0  0  0  0  0  0  0  0
    2.1595   -3.7404    0.0000 C   0  0  0  0  0  0  0  0  0  0  0  0
    0.7500   -4.2535    0.0000 C   0  0  0  0  0  0  0  0  0  0  0  0
   -0.7500   -4.2535    0.0000 C   0  0  0  0  0  0  0  0  0  0  0  0
   -2.1595   -3.7404    0.0000 C   0  0  0  0  0  0  0  0  0  0  0  0
   -3.3086   -2.7762    0.0000 C   0  0  0  0  0  0  0  0  0  0  0  0
   -4.0586   -1.4772    0.0000 C   0  0  0  0  0  0  0  0  0  0  0  0
   -4.3191    0.0000    0.0000 C   0  0  0  0  0  0  0  0  0  0  0  0
   -4.0586    1.4772    0.0000 C   0  0  0  0  0  0  0  0  0  0  0  0
   -3.3086    2.7762    0.0000 C   0  0  0  0  0  0  0  0  0  0  0  0
   -2.1595    3.7404    0.0000 C   0  0  0  0  0  0  0  0  0  0  0  0
   -0.7500    4.2535    0.0000 C   0  0  0  0  0  0  0  0  0  0  0  0
    0.7500    4.2535    0.0000 C   0  0  0  0  0  0  0  0  0  0  0  0
    2.1595    3.7404    0.0000 C   0  0  0  0  0  0  0  0  0  0  0  0
    3.3086    2.7762    0.0000 C   0  0  0  0  0  0  0  0  0  0  0  0
    4.0586    1.4772    0.0000 C   0  0  0  0  0  0  0  0  0  0  0  0
  1  2  1  0
  2  3  2  0
  3  4  1  0
  4  5  2  0
  5  6  2  0
  6  7  2  0
  7  8  1  0
  8  9  2  0
  9 10  1  0
 10 11  2  0
 11 12  1  0
 12 13  2  0
 13 14  1  0
 14 15  2  0
 15 16  1  0
 16 17  2  0
 17 18  1  0
 18 19  2  0
 19  2  1  0
M  END
>  <Title>  (1214) 
idABURgen8

$$$$

     RDKit          2D

 36 41  0  0  0  0  0  0  0  0999 V2000
    3.0000    0.0000    0.0000 C   0  0  0  0  0  0  0  0  0  0  0  0
    1.5000    0.0000    0.0000 C   0  0  0  0  0  0  0  0  0  0  0  0
    0.7500   -1.2990    0.0000 C   0  0  0  0  0  0  0  0  0  0  0  0
   -0.7500   -1.2990    0.0000 C   0  0  0  0  0  0  0  0  0  0  0  0
   -1.5000    0.0000    0.0000 C   0  0  0  0  0  0  0  0  0  0  0  0
   -3.0000    0.0000    0.0000 N   0  0  0  0  0  0  0  0  0  0  0  0
   -3.7500    1.2990    0.0000 C   0  0  0  0  0  0  0  0  0  0  0  0
   -5.2500    1.2990    0.0000 N   0  0  0  0  0  0  0  0  0  0  0  0
   -6.0000    0.0000    0.0000 N   0  0  0  0  0  0  0  0  0  0  0  0
   -5.2500   -1.2990    0.0000 N   0  0  0  0  0  0  0  0  0  0  0  0
   -3.7500   -1.2990    0.0000 N   0  0  0  0  0  0  0  0  0  0  0  0
   -3.0000   -2.5981    0.0000 C   0  0  0  0  0  0  0  0  0  0  0  0
   -3.7500   -3.8971    0.0000 C   0  0  0  0  0  0  0  0  0  0  0  0
   -3.0000   -5.1962    0.0000 C   0  0  0  0  0  0  0  0  0  0  0  0
   -1.5000   -5.1962    0.0000 C   0  0  0  0  0  0  0  0  0  0  0  0
   -0.7500   -6.4952    0.0000 C   0  0  0  0  0  0  0  0  0  0  0  0
    0.7418   -6.6520    0.0000 N   0  0  0  0  0  0  0  0  0  0  0  0
    1.0537   -8.1192    0.0000 N   0  0  0  0  0  0  0  0  0  0  0  0
   -0.2454   -8.8692    0.0000 N   0  0  0  0  0  0  0  0  0  0  0  0
   -1.3601   -7.8655    0.0000 N   0  0  0  0  0  0  0  0  0  0  0  0
   -2.8273   -8.1774    0.0000 C   0  0  0  0  0  0  0  0  0  0  0  0
   -3.8310   -7.0627    0.0000 C   0  0  0  0  0  0  0  0  0  0  0  0
   -5.2982   -7.3745    0.0000 C   0  0  0  0  0  0  0  0  0  0  0  0
   -5.7618   -8.8011    0.0000 C   0  0  0  0  0  0  0  0  0  0  0  0
   -4.7581   -9.9158    0.0000 C   0  0  0  0  0  0  0  0  0  0  0  0
   -3.2909   -9.6040    0.0000 C   0  0  0  0  0  0  0  0  0  0  0  0
   -2.2872  -10.7187    0.0000 C   0  0  0  0  0  0  0  0  0  0  0  0
   -2.7507  -12.1453    0.0000 C   0  0  0  0  0  0  0  0  0  0  0  0
   -1.7470  -13.2600    0.0000 C   0  0  0  0  0  0  0  0  0  0  0  0
   -0.2798  -12.9481    0.0000 C   0  0  0  0  0  0  0  0  0  0  0  0
    0.1838  -11.5215    0.0000 C   0  0  0  0  0  0  0  0  0  0  0  0
   -0.8199  -10.4068    0.0000 C   0  0  0  0  0  0  0  0  0  0  0  0
   -0.7500   -3.8971    0.0000 C   0  0  0  0  0  0  0  0  0  0  0  0
   -1.5000   -2.5981    0.0000 C   0  0  0  0  0  0  0  0  0  0  0  0
   -0.7500    1.2990    0.0000 N   0  0  0  0  0  0  0  0  0  0  0  0
    0.7500    1.2990    0.0000 C   0  0  0  0  0  0  0  0  0  0  0  0
  1  2  1  0
  2  3  2  0
  3  4  1  0
  4  5  2  0
  5  6  1  0
  6  7  1  0
  7  8  2  0
  8  9  1  0
  9 10  2  0
 10 11  1  0
 11 12  1  0
 12 13  2  0
 13 14  1  0
 14 15  2  0
 15 16  1  0
 16 17  2  0
 17 18  1  0
 18 19  2  0
 19 20  1  0
 20 21  1  0
 21 22  1  0
 22 23  1  0
 23 24  1  0
 24 25  1  0
 25 26  1  0
 26 27  1  0
 27 28  2  0
 28 29  1  0
 29 30  2  0
 30 31  1  0
 31 32  2  0
 15 33  1  0
 33 34  2  0
  5 35  1  0
 35 36  1  0
 36  2  1  0
 11  6  1  0
 34 12  1  0
 20 16  1  0
 26 21  1  0
 32 27  1  0
M  END
>  <Title>  (1215) 
idABUSgen8

$$$$

     RDKit          2D

 12 12  0  0  0  0  0  0  0  0999 V2000
    4.6771   -1.2990    0.0000 C   0  0  0  0  0  0  0  0  0  0  0  0
    3.9271    0.0000    0.0000 O   0  0  0  0  0  0  0  0  0  0  0  0
    2.4271    0.0000    0.0000 C   0  0  0  0  0  0  0  0  0  0  0  0
    1.9635   -1.4266    0.0000 C   0  0  0  0  0  0  0  0  0  0  0  0
    0.7500   -2.3083    0.0000 C   0  0  0  0  0  0  0  0  0  0  0  0
   -0.7500   -2.3083    0.0000 C   0  0  0  0  0  0  0  0  0  0  0  0
   -1.9635   -1.4266    0.0000 C   0  0  0  0  0  0  0  0  0  0  0  0
   -2.4271    0.0000    0.0000 C   0  0  0  0  0  0  0  0  0  0  0  0
   -1.9635    1.4266    0.0000 C   0  0  0  0  0  0  0  0  0  0  0  0
   -0.7500    2.3083    0.0000 C   0  0  0  0  0  0  0  0  0  0  0  0
    0.7500    2.3083    0.0000 C   0  0  0  0  0  0  0  0  0  0  0  0
    1.9635    1.4266    0.0000 N   0  0  0  0  0  0  0  0  0  0  0  0
  1  2  1  0
  2  3  1  0
  3  4  2  0
  4  5  1  0
  5  6  2  0
  6  7  1  0
  7  8  2  0
  8  9  1  0
  9 10  2  0
 10 11  1  0
 11 12  1  0
 12  3  1  0
M  END
>  <Title>  (1216) 
idABUTgen8

$$$$

     RDKit          2D

 23 23  0  0  0  0  0  0  0  0999 V2000
    6.7700    0.0000    0.0000 C   0  0  0  0  0  0  0  0  0  0  0  0
    5.2700    0.0000    0.0000 C   0  0  0  0  0  0  0  0  0  0  0  0
    5.0565   -1.4847    0.0000 C   0  0  0  0  0  0  0  0  0  0  0  0
    4.4334   -2.8492    0.0000 C   0  0  0  0  0  0  0  0  0  0  0  0
    3.4511   -3.9828    0.0000 C   0  0  0  0  0  0  0  0  0  0  0  0
    2.1892   -4.7938    0.0000 C   0  0  0  0  0  0  0  0  0  0  0  0
    0.7500   -5.2164    0.0000 C   0  0  0  0  0  0  0  0  0  0  0  0
   -0.7500   -5.2164    0.0000 C   0  0  0  0  0  0  0  0  0  0  0  0
   -2.1892   -4.7938    0.0000 C   0  0  0  0  0  0  0  0  0  0  0  0
   -3.4511   -3.9828    0.0000 C   0  0  0  0  0  0  0  0  0  0  0  0
   -4.4334   -2.8492    0.0000 C   0  0  0  0  0  0  0  0  0  0  0  0
   -5.0565   -1.4847    0.0000 C   0  0  0  0  0  0  0  0  0  0  0  0
   -5.2700    0.0000    0.0000 C   0  0  0  0  0  0  0  0  0  0  0  0
   -5.0565    1.4847    0.0000 C   0  0  0  0  0  0  0  0  0  0  0  0
   -4.4334    2.8492    0.0000 C   0  0  0  0  0  0  0  0  0  0  0  0
   -3.4511    3.9828    0.0000 C   0  0  0  0  0  0  0  0  0  0  0  0
   -2.1892    4.7938    0.0000 C   0  0  0  0  0  0  0  0  0  0  0  0
   -0.7500    5.2164    0.0000 N   0  0  0  0  0  0  0  0  0  0  0  0
    0.7500    5.2164    0.0000 C   0  0  0  0  0  0  0  0  0  0  0  0
    2.1892    4.7938    0.0000 C   0  0  0  0  0  0  0  0  0  0  0  0
    3.4511    3.9828    0.0000 C   0  0  0  0  0  0  0  0  0  0  0  0
    4.4334    2.8492    0.0000 C   0  0  0  0  0  0  0  0  0  0  0  0
    5.0565    1.4847    0.0000 C   0  0  0  0  0  0  0  0  0  0  0  0
  1  2  1  0
  2  3  2  0
  3  4  1  0
  4  5  2  0
  5  6  1  0
  6  7  2  0
  7  8  1  0
  8  9  2  0
  9 10  1  0
 10 11  2  0
 11 12  1  0
 12 13  2  0
 13 14  1  0
 14 15  2  0
 15 16  1  0
 16 17  2  0
 17 18  1  0
 18 19  2  0
 19 20  1  0
 20 21  2  0
 21 22  1  0
 22 23  2  0
 23  2  1  0
M  END
>  <Title>  (1217) 
idABUUgen8

$$$$

     RDKit          2D

 41 47  0  0  0  0  0  0  0  0999 V2000
   -4.8274   10.7735    0.0000 C   0  0  0  0  0  0  0  0  0  0  0  0
   -5.2909    9.3469    0.0000 C   0  0  0  0  0  0  0  0  0  0  0  0
   -4.2872    8.2322    0.0000 C   0  0  0  0  0  0  0  0  0  0  0  0
   -4.7508    6.8056    0.0000 C   0  0  0  0  0  0  0  0  0  0  0  0
   -6.2180    6.4937    0.0000 C   0  0  0  0  0  0  0  0  0  0  0  0
   -6.6815    5.0672    0.0000 C   0  0  0  0  0  0  0  0  0  0  0  0
   -8.1081    4.6036    0.0000 N   0  0  0  0  0  0  0  0  0  0  0  0
   -8.1081    3.1036    0.0000 N   0  0  0  0  0  0  0  0  0  0  0  0
   -6.6815    2.6401    0.0000 N   0  0  0  0  0  0  0  0  0  0  0  0
   -5.7998    3.8536    0.0000 N   0  0  0  0  0  0  0  0  0  0  0  0
   -4.2998    3.8536    0.0000 C   0  0  0  0  0  0  0  0  0  0  0  0
   -3.4182    2.6401    0.0000 C   0  0  0  0  0  0  0  0  0  0  0  0
   -1.9916    3.1036    0.0000 C   0  0  0  0  0  0  0  0  0  0  0  0
   -1.9916    4.6036    0.0000 C   0  0  0  0  0  0  0  0  0  0  0  0
   -0.7780    5.4853    0.0000 C   0  0  0  0  0  0  0  0  0  0  0  0
   -0.7780    6.9853    0.0000 N   0  0  0  0  0  0  0  0  0  0  0  0
    0.6485    7.4488    0.0000 N   0  0  0  0  0  0  0  0  0  0  0  0
    1.5302    6.2353    0.0000 N   0  0  0  0  0  0  0  0  0  0  0  0
    0.6485    5.0218    0.0000 N   0  0  0  0  0  0  0  0  0  0  0  0
    1.1121    3.5952    0.0000 C   0  0  0  0  0  0  0  0  0  0  0  0
    0.1084    2.4805    0.0000 C   0  0  0  0  0  0  0  0  0  0  0  0
    0.5719    1.0539    0.0000 C   0  0  0  0  0  0  0  0  0  0  0  0
    2.0391    0.7420    0.0000 C   0  0  0  0  0  0  0  0  0  0  0  0
    3.0428    1.8568    0.0000 C   0  0  0  0  0  0  0  0  0  0  0  0
    2.5793    3.2833    0.0000 C   0  0  0  0  0  0  0  0  0  0  0  0
    3.5830    4.3981    0.0000 C   0  0  0  0  0  0  0  0  0  0  0  0
    3.2711    5.8653    0.0000 N   0  0  0  0  0  0  0  0  0  0  0  0
    4.5702    6.6153    0.0000 N   0  0  0  0  0  0  0  0  0  0  0  0
    5.6849    5.6116    0.0000 N   0  0  0  0  0  0  0  0  0  0  0  0
    5.0748    4.2413    0.0000 N   0  0  0  0  0  0  0  0  0  0  0  0
    5.8248    2.9422    0.0000 C   0  0  0  0  0  0  0  0  0  0  0  0
    5.0748    1.6432    0.0000 C   0  0  0  0  0  0  0  0  0  0  0  0
    5.8248    0.3441    0.0000 C   0  0  0  0  0  0  0  0  0  0  0  0
    7.3248    0.3441    0.0000 C   0  0  0  0  0  0  0  0  0  0  0  0
    8.0748    1.6432    0.0000 C   0  0  0  0  0  0  0  0  0  0  0  0
    7.3248    2.9422    0.0000 C   0  0  0  0  0  0  0  0  0  0  0  0
   -3.4182    5.0672    0.0000 C   0  0  0  0  0  0  0  0  0  0  0  0
   -3.8817    6.4937    0.0000 O   0  0  0  0  0  0  0  0  0  0  0  0
   -7.2217    7.6085    0.0000 C   0  0  0  0  0  0  0  0  0  0  0  0
   -8.6889    7.2966    0.0000 O   0  0  0  0  0  0  0  0  0  0  0  0
   -6.7582    9.0350    0.0000 N   0  0  0  0  0  0  0  0  0  0  0  0
  1  2  1  0
  2  3  2  0
  3  4  1  0
  4  5  2  0
  5  6  1  0
  6  7  2  0
  7  8  1  0
  8  9  2  0
  9 10  1  0
 10 11  1  0
 11 12  2  0
 12 13  1  0
 13 14  2  0
 14 15  1  0
 15 16  2  0
 16 17  1  0
 17 18  2  0
 18 19  1  0
 19 20  1  0
 20 21  1  0
 21 22  1  0
 22 23  1  0
 23 24  1  0
 24 25  1  0
 25 26  1  0
 26 27  2  0
 27 28  1  0
 28 29  2  0
 29 30  1  0
 30 31  1  0
 31 32  2  0
 32 33  1  0
 33 34  2  0
 34 35  1  0
 35 36  2  0
 14 37  1  0
 37 38  2  0
  5 39  1  0
 39 40  2  0
 39 41  1  0
 41  2  1  0
 10  6  1  0
 37 11  1  0
 19 15  1  0
 25 20  1  0
 30 26  1  0
 36 31  1  0
M  END
>  <Title>  (1218) 
idABUVgen8

$$$$

     RDKit          2D

 34 38  0  0  0  0  0  0  0  0999 V2000
    3.7500    1.2990    0.0000 C   0  0  0  0  0  0  0  0  0  0  0  0
    3.0000    0.0000    0.0000 O   0  0  0  0  0  0  0  0  0  0  0  0
    1.5000    0.0000    0.0000 C   0  0  0  0  0  0  0  0  0  0  0  0
    0.7500    1.2990    0.0000 C   0  0  0  0  0  0  0  0  0  0  0  0
   -0.7500    1.2990    0.0000 C   0  0  0  0  0  0  0  0  0  0  0  0
   -1.5000    0.0000    0.0000 C   0  0  0  0  0  0  0  0  0  0  0  0
   -3.0000    0.0000    0.0000 C   0  0  0  0  0  0  0  0  0  0  0  0
   -3.8817   -1.2135    0.0000 N   0  0  0  0  0  0  0  0  0  0  0  0
   -5.3083   -0.7500    0.0000 N   0  0  0  0  0  0  0  0  0  0  0  0
   -5.3083    0.7500    0.0000 N   0  0  0  0  0  0  0  0  0  0  0  0
   -3.8817    1.2135    0.0000 N   0  0  0  0  0  0  0  0  0  0  0  0
   -3.4182    2.6401    0.0000 C   0  0  0  0  0  0  0  0  0  0  0  0
   -1.9509    2.9520    0.0000 C   0  0  0  0  0  0  0  0  0  0  0  0
   -1.4874    4.3786    0.0000 C   0  0  0  0  0  0  0  0  0  0  0  0
   -2.4911    5.4933    0.0000 C   0  0  0  0  0  0  0  0  0  0  0  0
   -2.0276    6.9199    0.0000 C   0  0  0  0  0  0  0  0  0  0  0  0
   -3.0313    8.0346    0.0000 O   0  0  0  0  0  0  0  0  0  0  0  0
   -0.5604    7.2317    0.0000 N   0  0  0  0  0  0  0  0  0  0  0  0
   -0.0968    8.6583    0.0000 C   0  0  0  0  0  0  0  0  0  0  0  0
   -0.9785    9.8718    0.0000 N   0  0  0  0  0  0  0  0  0  0  0  0
   -0.0968   11.0854    0.0000 N   0  0  0  0  0  0  0  0  0  0  0  0
    1.3298   10.6218    0.0000 N   0  0  0  0  0  0  0  0  0  0  0  0
    1.3298    9.1218    0.0000 N   0  0  0  0  0  0  0  0  0  0  0  0
    2.5433    8.2402    0.0000 C   0  0  0  0  0  0  0  0  0  0  0  0
    2.3865    6.7484    0.0000 C   0  0  0  0  0  0  0  0  0  0  0  0
    3.6000    5.8667    0.0000 C   0  0  0  0  0  0  0  0  0  0  0  0
    4.9703    6.4768    0.0000 C   0  0  0  0  0  0  0  0  0  0  0  0
    5.1271    7.9686    0.0000 C   0  0  0  0  0  0  0  0  0  0  0  0
    3.9136    8.8503    0.0000 C   0  0  0  0  0  0  0  0  0  0  0  0
   -3.9583    5.1814    0.0000 C   0  0  0  0  0  0  0  0  0  0  0  0
   -4.4218    3.7548    0.0000 C   0  0  0  0  0  0  0  0  0  0  0  0
   -0.7500   -1.2990    0.0000 C   0  0  0  0  0  0  0  0  0  0  0  0
   -1.5000   -2.5981    0.0000 O   0  0  0  0  0  0  0  0  0  0  0  0
    0.7500   -1.2990    0.0000 N   0  0  0  0  0  0  0  0  0  0  0  0
  1  2  1  0
  2  3  1  0
  3  4  2  0
  4  5  1  0
  5  6  2  0
  6  7  1  0
  7  8  2  0
  8  9  1  0
  9 10  2  0
 10 11  1  0
 11 12  1  0
 12 13  2  0
 13 14  1  0
 14 15  2  0
 15 16  1  0
 16 17  2  0
 16 18  1  0
 18 19  1  0
 19 20  2  0
 20 21  1  0
 21 22  2  0
 22 23  1  0
 23 24  1  0
 24 25  2  0
 25 26  1  0
 26 27  2  0
 27 28  1  0
 28 29  2  0
 15 30  1  0
 30 31  2  0
  6 32  1  0
 32 33  2  0
 32 34  1  0
 34  3  1  0
 11  7  1  0
 31 12  1  0
 23 19  1  0
 29 24  1  0
M  END
>  <Title>  (1219) 
idABUWgen8

$$$$

     RDKit          2D

 29 29  0  0  0  0  0  0  0  0999 V2000
    7.7222    0.0000    0.0000 C   0  0  0  0  0  0  0  0  0  0  0  0
    6.2222    0.0000    0.0000 C   0  0  0  0  0  0  0  0  0  0  0  0
    6.0414   -1.4891    0.0000 C   0  0  0  0  0  0  0  0  0  0  0  0
    5.5095   -2.8916    0.0000 C   0  0  0  0  0  0  0  0  0  0  0  0
    4.6574   -4.1261    0.0000 C   0  0  0  0  0  0  0  0  0  0  0  0
    3.5346   -5.1207    0.0000 C   0  0  0  0  0  0  0  0  0  0  0  0
    2.2064   -5.8178    0.0000 C   0  0  0  0  0  0  0  0  0  0  0  0
    0.7500   -6.1768    0.0000 C   0  0  0  0  0  0  0  0  0  0  0  0
   -0.7500   -6.1768    0.0000 C   0  0  0  0  0  0  0  0  0  0  0  0
   -2.2064   -5.8178    0.0000 C   0  0  0  0  0  0  0  0  0  0  0  0
   -3.5346   -5.1207    0.0000 C   0  0  0  0  0  0  0  0  0  0  0  0
   -4.6574   -4.1261    0.0000 C   0  0  0  0  0  0  0  0  0  0  0  0
   -5.5095   -2.8916    0.0000 C   0  0  0  0  0  0  0  0  0  0  0  0
   -6.0414   -1.4891    0.0000 C   0  0  0  0  0  0  0  0  0  0  0  0
   -6.2222    0.0000    0.0000 C   0  0  0  0  0  0  0  0  0  0  0  0
   -6.0414    1.4891    0.0000 C   0  0  0  0  0  0  0  0  0  0  0  0
   -5.5095    2.8916    0.0000 C   0  0  0  0  0  0  0  0  0  0  0  0
   -4.6574    4.1261    0.0000 C   0  0  0  0  0  0  0  0  0  0  0  0
   -3.5346    5.1207    0.0000 C   0  0  0  0  0  0  0  0  0  0  0  0
   -2.2064    5.8178    0.0000 C   0  0  0  0  0  0  0  0  0  0  0  0
   -0.7500    6.1768    0.0000 C   0  0  0  0  0  0  0  0  0  0  0  0
    0.7500    6.1768    0.0000 C   0  0  0  0  0  0  0  0  0  0  0  0
    2.2064    5.8178    0.0000 C   0  0  0  0  0  0  0  0  0  0  0  0
    3.5346    5.1207    0.0000 C   0  0  0  0  0  0  0  0  0  0  0  0
    4.6574    4.1261    0.0000 C   0  0  0  0  0  0  0  0  0  0  0  0
    5.7801    5.1207    0.0000 O   0  0  0  0  0  0  0  0  0  0  0  0
    5.5095    2.8916    0.0000 C   0  0  0  0  0  0  0  0  0  0  0  0
    6.8376    3.5887    0.0000 O   0  0  0  0  0  0  0  0  0  0  0  0
    6.0414    1.4891    0.0000 C   0  0  0  0  0  0  0  0  0  0  0  0
  1  2  1  0
  2  3  2  0
  3  4  1  0
  4  5  2  0
  5  6  1  0
  6  7  2  0
  7  8  1  0
  8  9  2  0
  9 10  1  0
 10 11  2  0
 11 12  1  0
 12 13  2  0
 13 14  1  0
 14 15  2  0
 15 16  1  0
 16 17  2  0
 17 18  1  0
 18 19  2  0
 19 20  1  0
 20 21  2  0
 21 22  1  0
 22 23  2  0
 23 24  1  0
 24 25  2  0
 25 26  1  0
 25 27  1  0
 27 28  1  0
 27 29  1  0
 29  2  1  0
M  END
>  <Title>  (1220) 
idABUXgen8

$$$$

     RDKit          2D

 61 69  0  0  0  0  0  0  0  0999 V2000
   -1.5000   -2.5981    0.0000 C   0  0  0  0  0  0  0  0  0  0  0  0
   -0.7500   -1.2990    0.0000 C   0  0  0  0  0  0  0  0  0  0  0  0
    0.7500   -1.2990    0.0000 C   0  0  0  0  0  0  0  0  0  0  0  0
    1.5000    0.0000    0.0000 C   0  0  0  0  0  0  0  0  0  0  0  0
    0.7500    1.2990    0.0000 C   0  0  0  0  0  0  0  0  0  0  0  0
    1.5000    2.5981    0.0000 N   0  0  0  0  0  0  0  0  0  0  0  0
    0.8899    3.9684    0.0000 N   0  0  0  0  0  0  0  0  0  0  0  0
    2.0046    4.9721    0.0000 N   0  0  0  0  0  0  0  0  0  0  0  0
    3.3037    4.2221    0.0000 N   0  0  0  0  0  0  0  0  0  0  0  0
    2.9918    2.7549    0.0000 C   0  0  0  0  0  0  0  0  0  0  0  0
    3.9955    1.6402    0.0000 C   0  0  0  0  0  0  0  0  0  0  0  0
    3.5320    0.2136    0.0000 C   0  0  0  0  0  0  0  0  0  0  0  0
    4.5356   -0.9012    0.0000 C   0  0  0  0  0  0  0  0  0  0  0  0
    6.0029   -0.5893    0.0000 C   0  0  0  0  0  0  0  0  0  0  0  0
    7.0066   -1.7040    0.0000 C   0  0  0  0  0  0  0  0  0  0  0  0
    6.4664    0.8373    0.0000 C   0  0  0  0  0  0  0  0  0  0  0  0
    7.9336    1.1492    0.0000 O   0  0  0  0  0  0  0  0  0  0  0  0
    5.4627    1.9520    0.0000 N   0  0  0  0  0  0  0  0  0  0  0  0
   -0.7500    1.2990    0.0000 C   0  0  0  0  0  0  0  0  0  0  0  0
   -1.5000    2.5981    0.0000 C   0  0  0  0  0  0  0  0  0  0  0  0
   -0.7500    3.8971    0.0000 C   0  0  0  0  0  0  0  0  0  0  0  0
   -1.5000    5.1962    0.0000 C   0  0  0  0  0  0  0  0  0  0  0  0
   -3.0000    5.1962    0.0000 C   0  0  0  0  0  0  0  0  0  0  0  0
   -3.7500    6.4952    0.0000 C   0  0  0  0  0  0  0  0  0  0  0  0
   -5.2418    6.6520    0.0000 N   0  0  0  0  0  0  0  0  0  0  0  0
   -5.5537    8.1192    0.0000 N   0  0  0  0  0  0  0  0  0  0  0  0
   -4.2546    8.8692    0.0000 N   0  0  0  0  0  0  0  0  0  0  0  0
   -3.1399    7.8655    0.0000 N   0  0  0  0  0  0  0  0  0  0  0  0
   -1.6727    8.1774    0.0000 C   0  0  0  0  0  0  0  0  0  0  0  0
   -0.6690    7.0627    0.0000 C   0  0  0  0  0  0  0  0  0  0  0  0
    0.7982    7.3745    0.0000 C   0  0  0  0  0  0  0  0  0  0  0  0
    1.2618    8.8011    0.0000 C   0  0  0  0  0  0  0  0  0  0  0  0
    2.7290    9.1130    0.0000 F   0  0  0  0  0  0  0  0  0  0  0  0
    0.2581    9.9158    0.0000 C   0  0  0  0  0  0  0  0  0  0  0  0
   -1.2091    9.6040    0.0000 C   0  0  0  0  0  0  0  0  0  0  0  0
   -3.7500    3.8971    0.0000 C   0  0  0  0  0  0  0  0  0  0  0  0
   -3.0000    2.5981    0.0000 C   0  0  0  0  0  0  0  0  0  0  0  0
   -3.7500    1.2990    0.0000 C   0  0  0  0  0  0  0  0  0  0  0  0
   -3.1399   -0.0713    0.0000 C   0  0  0  0  0  0  0  0  0  0  0  0
   -4.2546   -1.0750    0.0000 C   0  0  0  0  0  0  0  0  0  0  0  0
   -5.5537   -0.3250    0.0000 C   0  0  0  0  0  0  0  0  0  0  0  0
   -6.9240   -0.9351    0.0000 C   0  0  0  0  0  0  0  0  0  0  0  0
   -7.0808   -2.4269    0.0000 O   0  0  0  0  0  0  0  0  0  0  0  0
   -8.1375   -0.0534    0.0000 N   0  0  0  0  0  0  0  0  0  0  0  0
   -9.5078   -0.6635    0.0000 C   0  0  0  0  0  0  0  0  0  0  0  0
   -9.6646   -2.1553    0.0000 O   0  0  0  0  0  0  0  0  0  0  0  0
  -10.7213    0.2182    0.0000 N   0  0  0  0  0  0  0  0  0  0  0  0
  -12.0917   -0.3919    0.0000 C   0  0  0  0  0  0  0  0  0  0  0  0
  -12.4035   -1.8592    0.0000 N   0  0  0  0  0  0  0  0  0  0  0  0
  -13.8953   -2.0159    0.0000 N   0  0  0  0  0  0  0  0  0  0  0  0
  -14.5054   -0.6456    0.0000 N   0  0  0  0  0  0  0  0  0  0  0  0
  -13.3907    0.3581    0.0000 N   0  0  0  0  0  0  0  0  0  0  0  0
  -13.5475    1.8498    0.0000 C   0  0  0  0  0  0  0  0  0  0  0  0
  -12.3340    2.7315    0.0000 C   0  0  0  0  0  0  0  0  0  0  0  0
  -12.4908    4.2233    0.0000 C   0  0  0  0  0  0  0  0  0  0  0  0
  -13.8611    4.8334    0.0000 C   0  0  0  0  0  0  0  0  0  0  0  0
  -15.0746    3.9517    0.0000 C   0  0  0  0  0  0  0  0  0  0  0  0
  -14.9178    2.4600    0.0000 C   0  0  0  0  0  0  0  0  0  0  0  0
   -5.2418    1.1422    0.0000 C   0  0  0  0  0  0  0  0  0  0  0  0
   -6.2455    2.2570    0.0000 O   0  0  0  0  0  0  0  0  0  0  0  0
   -1.5000   -0.0000    0.0000 C   0  0  0  0  0  0  0  0  0  0  0  0
  1  2  1  0
  2  3  2  0
  3  4  1  0
  4  5  2  0
  5  6  1  0
  6  7  1  0
  7  8  2  0
  8  9  1  0
  9 10  2  0
 10 11  1  0
 11 12  2  0
 12 13  1  0
 13 14  2  0
 14 15  1  0
 14 16  1  0
 16 17  2  0
 16 18  1  0
  5 19  1  0
 19 20  1  0
 20 21  2  0
 21 22  1  0
 22 23  2  0
 23 24  1  0
 24 25  2  0
 25 26  1  0
 26 27  2  0
 27 28  1  0
 28 29  1  0
 29 30  2  0
 30 31  1  0
 31 32  2  0
 32 33  1  0
 32 34  1  0
 34 35  2  0
 23 36  1  0
 36 37  2  0
 37 38  1  0
 38 39  2  0
 39 40  1  0
 40 41  2  0
 41 42  1  0
 42 43  2  0
 42 44  1  0
 44 45  1  0
 45 46  2  0
 45 47  1  0
 47 48  1  0
 48 49  2  0
 49 50  1  0
 50 51  2  0
 51 52  1  0
 52 53  1  0
 53 54  2  0
 54 55  1  0
 55 56  2  0
 56 57  1  0
 57 58  2  0
 41 59  1  0
 59 60  2  0
 19 61  2  0
 61  2  1  0
 10  6  1  0
 18 11  1  0
 37 20  1  0
 59 38  1  0
 28 24  1  0
 35 29  1  0
 52 48  1  0
 58 53  1  0
M  END
>  <Title>  (1221) 
idABUYgen8

$$$$

     RDKit          2D

 31 33  0  0  0  0  0  0  0  0999 V2000
   -5.1478   -1.2990    0.0000 C   0  0  0  0  0  0  0  0  0  0  0  0
   -4.3978   -0.0000    0.0000 O   0  0  0  0  0  0  0  0  0  0  0  0
   -2.8978    0.0000    0.0000 C   0  0  0  0  0  0  0  0  0  0  0  0
   -2.5095   -1.4489    0.0000 C   0  0  0  0  0  0  0  0  0  0  0  0
   -1.4489   -2.5095    0.0000 C   0  0  0  0  0  0  0  0  0  0  0  0
    0.0000   -2.8978    0.0000 C   0  0  0  0  0  0  0  0  0  0  0  0
    1.4489   -2.5095    0.0000 C   0  0  0  0  0  0  0  0  0  0  0  0
    2.5095   -1.4489    0.0000 C   0  0  0  0  0  0  0  0  0  0  0  0
    2.8978    0.0000    0.0000 C   0  0  0  0  0  0  0  0  0  0  0  0
    2.5095    1.4489    0.0000 C   0  0  0  0  0  0  0  0  0  0  0  0
    1.4489    2.5095    0.0000 C   0  0  0  0  0  0  0  0  0  0  0  0
    0.0000    2.8978    0.0000 C   0  0  0  0  0  0  0  0  0  0  0  0
    0.0000    4.3978    0.0000 N   0  0  0  0  0  0  0  0  0  0  0  0
    1.2990    5.1478    0.0000 C   0  0  0  0  0  0  0  0  0  0  0  0
    2.6694    4.5377    0.0000 N   0  0  0  0  0  0  0  0  0  0  0  0
    3.6731    5.6524    0.0000 N   0  0  0  0  0  0  0  0  0  0  0  0
    2.9231    6.9514    0.0000 N   0  0  0  0  0  0  0  0  0  0  0  0
    1.4558    6.6396    0.0000 N   0  0  0  0  0  0  0  0  0  0  0  0
    0.3411    7.6433    0.0000 C   0  0  0  0  0  0  0  0  0  0  0  0
   -1.0855    7.1797    0.0000 C   0  0  0  0  0  0  0  0  0  0  0  0
   -2.2002    8.1834    0.0000 C   0  0  0  0  0  0  0  0  0  0  0  0
   -1.8883    9.6506    0.0000 C   0  0  0  0  0  0  0  0  0  0  0  0
   -3.0030   10.6543    0.0000 C   0  0  0  0  0  0  0  0  0  0  0  0
   -4.4296   10.1908    0.0000 O   0  0  0  0  0  0  0  0  0  0  0  0
   -2.6912   12.1216    0.0000 N   0  0  0  0  0  0  0  0  0  0  0  0
   -3.8059   13.1253    0.0000 O   0  0  0  0  0  0  0  0  0  0  0  0
   -0.4617   10.1142    0.0000 C   0  0  0  0  0  0  0  0  0  0  0  0
    0.6530    9.1105    0.0000 C   0  0  0  0  0  0  0  0  0  0  0  0
   -1.4489    2.5095    0.0000 C   0  0  0  0  0  0  0  0  0  0  0  0
   -2.1989    3.8086    0.0000 O   0  0  0  0  0  0  0  0  0  0  0  0
   -2.5095    1.4489    0.0000 O   0  0  0  0  0  0  0  0  0  0  0  0
  1  2  1  0
  2  3  1  0
  3  4  2  0
  4  5  1  0
  5  6  2  0
  6  7  1  0
  7  8  2  0
  8  9  1  0
  9 10  2  0
 10 11  1  0
 11 12  2  0
 12 13  1  0
 13 14  1  0
 14 15  2  0
 15 16  1  0
 16 17  2  0
 17 18  1  0
 18 19  1  0
 19 20  2  0
 20 21  1  0
 21 22  2  0
 22 23  1  0
 23 24  2  0
 23 25  1  0
 25 26  1  0
 22 27  1  0
 27 28  1  0
 12 29  1  0
 29 30  2  0
 29 31  1  0
 31  3  1  0
 18 14  1  0
 28 19  1  0
M  END
>  <Title>  (1222) 
idABUZgen8

$$$$

     RDKit          2D

 31 34  0  0  0  0  0  0  0  0999 V2000
    3.6929    0.0000    0.0000 C   0  0  0  0  0  0  0  0  0  0  0  0
    2.1929    0.0000    0.0000 C   0  0  0  0  0  0  0  0  0  0  0  0
    1.6798    1.4095    0.0000 C   0  0  0  0  0  0  0  0  0  0  0  0
    0.3808    2.1595    0.0000 C   0  0  0  0  0  0  0  0  0  0  0  0
   -1.0964    1.8991    0.0000 C   0  0  0  0  0  0  0  0  0  0  0  0
   -2.0606    0.7500    0.0000 N   0  0  0  0  0  0  0  0  0  0  0  0
   -2.0606   -0.7500    0.0000 N   0  0  0  0  0  0  0  0  0  0  0  0
   -1.0964   -1.8991    0.0000 C   0  0  0  0  0  0  0  0  0  0  0  0
   -1.8464   -3.1981    0.0000 C   0  0  0  0  0  0  0  0  0  0  0  0
   -1.0964   -4.4971    0.0000 O   0  0  0  0  0  0  0  0  0  0  0  0
   -3.3464   -3.1981    0.0000 N   0  0  0  0  0  0  0  0  0  0  0  0
   -4.0964   -4.4971    0.0000 C   0  0  0  0  0  0  0  0  0  0  0  0
   -3.4863   -5.8675    0.0000 N   0  0  0  0  0  0  0  0  0  0  0  0
   -4.6010   -6.8712    0.0000 N   0  0  0  0  0  0  0  0  0  0  0  0
   -5.9001   -6.1212    0.0000 N   0  0  0  0  0  0  0  0  0  0  0  0
   -5.5882   -4.6539    0.0000 N   0  0  0  0  0  0  0  0  0  0  0  0
   -6.5919   -3.5392    0.0000 C   0  0  0  0  0  0  0  0  0  0  0  0
   -6.1284   -2.1126    0.0000 C   0  0  0  0  0  0  0  0  0  0  0  0
   -7.1321   -0.9979    0.0000 C   0  0  0  0  0  0  0  0  0  0  0  0
   -8.5993   -1.3098    0.0000 C   0  0  0  0  0  0  0  0  0  0  0  0
   -9.6030   -0.1951    0.0000 C   0  0  0  0  0  0  0  0  0  0  0  0
   -9.1395    1.2315    0.0000 C   0  0  0  0  0  0  0  0  0  0  0  0
   -7.6722    1.5434    0.0000 C   0  0  0  0  0  0  0  0  0  0  0  0
   -7.2087    2.9700    0.0000 C   0  0  0  0  0  0  0  0  0  0  0  0
   -8.2124    4.0847    0.0000 C   0  0  0  0  0  0  0  0  0  0  0  0
   -9.6796    3.7728    0.0000 C   0  0  0  0  0  0  0  0  0  0  0  0
  -10.1432    2.3462    0.0000 C   0  0  0  0  0  0  0  0  0  0  0  0
   -9.0628   -2.7364    0.0000 C   0  0  0  0  0  0  0  0  0  0  0  0
   -8.0591   -3.8511    0.0000 C   0  0  0  0  0  0  0  0  0  0  0  0
    0.3808   -2.1595    0.0000 C   0  0  0  0  0  0  0  0  0  0  0  0
    1.6798   -1.4095    0.0000 C   0  0  0  0  0  0  0  0  0  0  0  0
  1  2  1  0
  2  3  2  0
  3  4  1  0
  4  5  2  0
  5  6  2  0
  6  7  1  0
  7  8  2  0
  8  9  1  0
  9 10  2  0
  9 11  1  0
 11 12  1  0
 12 13  2  0
 13 14  1  0
 14 15  2  0
 15 16  1  0
 16 17  1  0
 17 18  2  0
 18 19  1  0
 19 20  2  0
 20 21  1  0
 21 22  1  0
 22 23  2  0
 23 24  1  0
 24 25  2  0
 25 26  1  0
 26 27  2  0
 20 28  1  0
 28 29  2  0
  8 30  1  0
 30 31  2  0
 31  2  1  0
 16 12  1  0
 29 17  1  0
 27 22  1  0
M  END
>  <Title>  (1223) 
idABVAgen8

$$$$

     RDKit          2D

 39 44  0  0  0  0  0  0  0  0999 V2000
    3.0000    0.0000    0.0000 C   0  0  0  0  0  0  0  0  0  0  0  0
    1.5000    0.0000    0.0000 C   0  0  0  0  0  0  0  0  0  0  0  0
    0.7500   -1.2990    0.0000 C   0  0  0  0  0  0  0  0  0  0  0  0
   -0.7500   -1.2990    0.0000 C   0  0  0  0  0  0  0  0  0  0  0  0
   -1.5000    0.0000    0.0000 C   0  0  0  0  0  0  0  0  0  0  0  0
   -3.0000    0.0000    0.0000 C   0  0  0  0  0  0  0  0  0  0  0  0
   -3.8817   -1.2135    0.0000 N   0  0  0  0  0  0  0  0  0  0  0  0
   -5.3083   -0.7500    0.0000 N   0  0  0  0  0  0  0  0  0  0  0  0
   -5.3083    0.7500    0.0000 N   0  0  0  0  0  0  0  0  0  0  0  0
   -3.8817    1.2135    0.0000 N   0  0  0  0  0  0  0  0  0  0  0  0
   -3.4182    2.6401    0.0000 C   0  0  0  0  0  0  0  0  0  0  0  0
   -4.2998    3.8536    0.0000 C   0  0  0  0  0  0  0  0  0  0  0  0
   -3.4182    5.0672    0.0000 C   0  0  0  0  0  0  0  0  0  0  0  0
   -1.9916    4.6036    0.0000 C   0  0  0  0  0  0  0  0  0  0  0  0
   -0.7780    5.4853    0.0000 C   0  0  0  0  0  0  0  0  0  0  0  0
    0.5923    4.8752    0.0000 O   0  0  0  0  0  0  0  0  0  0  0  0
   -0.9348    6.9771    0.0000 N   0  0  0  0  0  0  0  0  0  0  0  0
    0.2787    7.8588    0.0000 C   0  0  0  0  0  0  0  0  0  0  0  0
    1.7053    7.3952    0.0000 N   0  0  0  0  0  0  0  0  0  0  0  0
    2.5870    8.6088    0.0000 N   0  0  0  0  0  0  0  0  0  0  0  0
    1.7053    9.8223    0.0000 N   0  0  0  0  0  0  0  0  0  0  0  0
    0.2787    9.3588    0.0000 N   0  0  0  0  0  0  0  0  0  0  0  0
   -0.9348   10.2405    0.0000 C   0  0  0  0  0  0  0  0  0  0  0  0
   -2.3052    9.6303    0.0000 C   0  0  0  0  0  0  0  0  0  0  0  0
   -3.5187   10.5120    0.0000 C   0  0  0  0  0  0  0  0  0  0  0  0
   -3.3619   12.0038    0.0000 C   0  0  0  0  0  0  0  0  0  0  0  0
   -1.9916   12.6139    0.0000 C   0  0  0  0  0  0  0  0  0  0  0  0
   -0.7780   11.7322    0.0000 C   0  0  0  0  0  0  0  0  0  0  0  0
    0.5923   12.3423    0.0000 C   0  0  0  0  0  0  0  0  0  0  0  0
    0.7491   13.8341    0.0000 C   0  0  0  0  0  0  0  0  0  0  0  0
    2.1194   14.4442    0.0000 C   0  0  0  0  0  0  0  0  0  0  0  0
    3.3329   13.5625    0.0000 C   0  0  0  0  0  0  0  0  0  0  0  0
    3.1761   12.0708    0.0000 C   0  0  0  0  0  0  0  0  0  0  0  0
    1.8058   11.4607    0.0000 C   0  0  0  0  0  0  0  0  0  0  0  0
   -1.9916    3.1036    0.0000 C   0  0  0  0  0  0  0  0  0  0  0  0
   -0.7780    2.2220    0.0000 O   0  0  0  0  0  0  0  0  0  0  0  0
   -0.7500    1.2990    0.0000 N   0  0  0  0  0  0  0  0  0  0  0  0
    0.7500    1.2990    0.0000 C   0  0  0  0  0  0  0  0  0  0  0  0
    1.5000    2.5981    0.0000 O   0  0  0  0  0  0  0  0  0  0  0  0
  1  2  1  0
  2  3  2  0
  3  4  1  0
  4  5  2  0
  5  6  1  0
  6  7  2  0
  7  8  1  0
  8  9  2  0
  9 10  1  0
 10 11  1  0
 11 12  2  0
 12 13  1  0
 13 14  2  0
 14 15  1  0
 15 16  2  0
 15 17  1  0
 17 18  1  0
 18 19  2  0
 19 20  1  0
 20 21  2  0
 21 22  1  0
 22 23  1  0
 23 24  2  0
 24 25  1  0
 25 26  2  0
 26 27  1  0
 27 28  2  0
 28 29  1  0
 29 30  2  0
 30 31  1  0
 31 32  2  0
 32 33  1  0
 33 34  2  0
 14 35  1  0
 35 36  2  0
  5 37  1  0
 37 38  1  0
 38 39  2  0
 38  2  1  0
 10  6  1  0
 35 11  1  0
 22 18  1  0
 28 23  1  0
 34 29  1  0
M  END
>  <Title>  (1224) 
idABVBgen8

$$$$

     RDKit          2D

 60 69  0  0  0  0  0  0  0  0999 V2000
   -8.2500   -6.4952    0.0000 C   0  0  0  0  0  0  0  0  0  0  0  0
   -7.5000   -5.1962    0.0000 C   0  0  0  0  0  0  0  0  0  0  0  0
   -6.0000   -5.1962    0.0000 C   0  0  0  0  0  0  0  0  0  0  0  0
   -5.2500   -3.8971    0.0000 C   0  0  0  0  0  0  0  0  0  0  0  0
   -6.0000   -2.5981    0.0000 C   0  0  0  0  0  0  0  0  0  0  0  0
   -5.2500   -1.2990    0.0000 C   0  0  0  0  0  0  0  0  0  0  0  0
   -6.0000    0.0000    0.0000 C   0  0  0  0  0  0  0  0  0  0  0  0
   -5.2500    1.2990    0.0000 C   0  0  0  0  0  0  0  0  0  0  0  0
   -6.0000    2.5981    0.0000 C   0  0  0  0  0  0  0  0  0  0  0  0
   -5.3899    3.9684    0.0000 N   0  0  0  0  0  0  0  0  0  0  0  0
   -6.5046    4.9721    0.0000 N   0  0  0  0  0  0  0  0  0  0  0  0
   -7.8037    4.2221    0.0000 N   0  0  0  0  0  0  0  0  0  0  0  0
   -7.4918    2.7549    0.0000 N   0  0  0  0  0  0  0  0  0  0  0  0
   -8.4955    1.6402    0.0000 C   0  0  0  0  0  0  0  0  0  0  0  0
   -8.0320    0.2136    0.0000 C   0  0  0  0  0  0  0  0  0  0  0  0
   -9.0356   -0.9012    0.0000 C   0  0  0  0  0  0  0  0  0  0  0  0
  -10.5029   -0.5893    0.0000 C   0  0  0  0  0  0  0  0  0  0  0  0
  -10.9664    0.8373    0.0000 C   0  0  0  0  0  0  0  0  0  0  0  0
   -9.9627    1.9520    0.0000 C   0  0  0  0  0  0  0  0  0  0  0  0
   -3.7500    1.2990    0.0000 C   0  0  0  0  0  0  0  0  0  0  0  0
   -3.0000    0.0000    0.0000 C   0  0  0  0  0  0  0  0  0  0  0  0
   -3.7500   -1.2990    0.0000 C   0  0  0  0  0  0  0  0  0  0  0  0
   -3.0000   -2.5981    0.0000 C   0  0  0  0  0  0  0  0  0  0  0  0
   -3.7500   -3.8971    0.0000 C   0  0  0  0  0  0  0  0  0  0  0  0
   -3.0000   -5.1962    0.0000 C   0  0  0  0  0  0  0  0  0  0  0  0
   -3.7500   -6.4952    0.0000 C   0  0  0  0  0  0  0  0  0  0  0  0
   -5.2418   -6.6520    0.0000 N   0  0  0  0  0  0  0  0  0  0  0  0
   -5.5537   -8.1192    0.0000 N   0  0  0  0  0  0  0  0  0  0  0  0
   -4.2546   -8.8692    0.0000 N   0  0  0  0  0  0  0  0  0  0  0  0
   -3.1399   -7.8655    0.0000 N   0  0  0  0  0  0  0  0  0  0  0  0
   -1.6727   -8.1774    0.0000 C   0  0  0  0  0  0  0  0  0  0  0  0
   -0.6690   -7.0627    0.0000 C   0  0  0  0  0  0  0  0  0  0  0  0
    0.7982   -7.3745    0.0000 C   0  0  0  0  0  0  0  0  0  0  0  0
    1.2618   -8.8011    0.0000 C   0  0  0  0  0  0  0  0  0  0  0  0
    0.2581   -9.9158    0.0000 C   0  0  0  0  0  0  0  0  0  0  0  0
   -1.2091   -9.6040    0.0000 C   0  0  0  0  0  0  0  0  0  0  0  0
   -1.5000   -5.1962    0.0000 C   0  0  0  0  0  0  0  0  0  0  0  0
   -0.7500   -3.8971    0.0000 C   0  0  0  0  0  0  0  0  0  0  0  0
   -1.5000   -2.5981    0.0000 C   0  0  0  0  0  0  0  0  0  0  0  0
   -0.7500   -1.2990    0.0000 C   0  0  0  0  0  0  0  0  0  0  0  0
   -1.5000    0.0000    0.0000 C   0  0  0  0  0  0  0  0  0  0  0  0
   -0.7500    1.2990    0.0000 C   0  0  0  0  0  0  0  0  0  0  0  0
    0.7500    1.2990    0.0000 C   0  0  0  0  0  0  0  0  0  0  0  0
    1.5000    0.0000    0.0000 C   0  0  0  0  0  0  0  0  0  0  0  0
    0.7500   -1.2990    0.0000 C   0  0  0  0  0  0  0  0  0  0  0  0
    1.5000   -2.5981    0.0000 N   0  0  0  0  0  0  0  0  0  0  0  0
    0.8899   -3.9684    0.0000 N   0  0  0  0  0  0  0  0  0  0  0  0
    2.0046   -4.9721    0.0000 N   0  0  0  0  0  0  0  0  0  0  0  0
    3.3037   -4.2221    0.0000 N   0  0  0  0  0  0  0  0  0  0  0  0
    2.9918   -2.7549    0.0000 C   0  0  0  0  0  0  0  0  0  0  0  0
    3.9955   -1.6402    0.0000 C   0  0  0  0  0  0  0  0  0  0  0  0
    3.5320   -0.2136    0.0000 C   0  0  0  0  0  0  0  0  0  0  0  0
    4.5356    0.9012    0.0000 C   0  0  0  0  0  0  0  0  0  0  0  0
    6.0029    0.5893    0.0000 C   0  0  0  0  0  0  0  0  0  0  0  0
    7.0066    1.7040    0.0000 C   0  0  0  0  0  0  0  0  0  0  0  0
    6.4664   -0.8373    0.0000 N   0  0  0  0  0  0  0  0  0  0  0  0
    5.4627   -1.9520    0.0000 C   0  0  0  0  0  0  0  0  0  0  0  0
    5.9262   -3.3786    0.0000 O   0  0  0  0  0  0  0  0  0  0  0  0
   -7.5000   -2.5981    0.0000 C   0  0  0  0  0  0  0  0  0  0  0  0
   -8.2500   -3.8971    0.0000 C   0  0  0  0  0  0  0  0  0  0  0  0
  1  2  1  0
  2  3  2  0
  3  4  1  0
  4  5  2  0
  5  6  1  0
  6  7  2  0
  7  8  1  0
  8  9  1  0
  9 10  2  0
 10 11  1  0
 11 12  2  0
 12 13  1  0
 13 14  1  0
 14 15  2  0
 15 16  1  0
 16 17  2  0
 17 18  1  0
 18 19  2  0
  8 20  2  0
 20 21  1  0
 21 22  2  0
 22 23  1  0
 23 24  2  0
 24 25  1  0
 25 26  1  0
 26 27  2  0
 27 28  1  0
 28 29  2  0
 29 30  1  0
 30 31  1  0
 31 32  2  0
 32 33  1  0
 33 34  2  0
 34 35  1  0
 35 36  2  0
 25 37  2  0
 37 38  1  0
 38 39  2  0
 39 40  1  0
 40 41  1  0
 41 42  1  0
 42 43  1  0
 43 44  1  0
 44 45  1  0
 45 46  1  0
 46 47  1  0
 47 48  2  0
 48 49  1  0
 49 50  2  0
 50 51  1  0
 51 52  2  0
 52 53  1  0
 53 54  2  0
 54 55  1  0
 54 56  1  0
 56 57  1  0
 57 58  2  0
  5 59  1  0
 59 60  2  0
 60  2  1  0
 22  6  1  0
 39 23  1  0
 45 40  1  0
 50 46  1  0
 57 51  1  0
 13  9  1  0
 19 14  1  0
 30 26  1  0
 36 31  1  0
M  END
>  <Title>  (1225) 
idABVCgen8

$$$$

     RDKit          2D

 24 24  0  0  0  0  0  0  0  0999 V2000
    7.0080   -0.0000    0.0000 C   0  0  0  0  0  0  0  0  0  0  0  0
    5.5080    0.0000    0.0000 C   0  0  0  0  0  0  0  0  0  0  0  0
    5.3037    1.4860    0.0000 C   0  0  0  0  0  0  0  0  0  0  0  0
    4.7061    2.8618    0.0000 C   0  0  0  0  0  0  0  0  0  0  0  0
    3.7595    4.0254    0.0000 C   0  0  0  0  0  0  0  0  0  0  0  0
    2.5340    4.8904    0.0000 C   0  0  0  0  0  0  0  0  0  0  0  0
    1.1206    5.3928    0.0000 C   0  0  0  0  0  0  0  0  0  0  0  0
   -0.3759    5.4951    0.0000 C   0  0  0  0  0  0  0  0  0  0  0  0
   -1.8445    5.1899    0.0000 C   0  0  0  0  0  0  0  0  0  0  0  0
   -3.1763    4.4998    0.0000 C   0  0  0  0  0  0  0  0  0  0  0  0
   -4.2726    3.4760    0.0000 C   0  0  0  0  0  0  0  0  0  0  0  0
   -5.0520    2.1944    0.0000 C   0  0  0  0  0  0  0  0  0  0  0  0
   -5.4567    0.7500    0.0000 C   0  0  0  0  0  0  0  0  0  0  0  0
   -5.4567   -0.7500    0.0000 C   0  0  0  0  0  0  0  0  0  0  0  0
   -5.0520   -2.1944    0.0000 C   0  0  0  0  0  0  0  0  0  0  0  0
   -4.2726   -3.4760    0.0000 C   0  0  0  0  0  0  0  0  0  0  0  0
   -3.1763   -4.4998    0.0000 C   0  0  0  0  0  0  0  0  0  0  0  0
   -1.8445   -5.1899    0.0000 C   0  0  0  0  0  0  0  0  0  0  0  0
   -0.3759   -5.4951    0.0000 C   0  0  0  0  0  0  0  0  0  0  0  0
    1.1206   -5.3928    0.0000 C   0  0  0  0  0  0  0  0  0  0  0  0
    2.5340   -4.8904    0.0000 C   0  0  0  0  0  0  0  0  0  0  0  0
    3.7595   -4.0254    0.0000 C   0  0  0  0  0  0  0  0  0  0  0  0
    4.7061   -2.8618    0.0000 C   0  0  0  0  0  0  0  0  0  0  0  0
    5.3037   -1.4860    0.0000 C   0  0  0  0  0  0  0  0  0  0  0  0
  1  2  1  0
  2  3  1  0
  3  4  2  0
  4  5  1  0
  5  6  2  0
  6  7  1  0
  7  8  2  0
  8  9  1  0
  9 10  2  0
 10 11  1  0
 11 12  2  0
 12 13  1  0
 13 14  2  0
 14 15  1  0
 15 16  2  0
 16 17  1  0
 17 18  2  0
 18 19  1  0
 19 20  2  0
 20 21  1  0
 21 22  2  0
 22 23  1  0
 23 24  1  0
 24  2  1  0
M  END
>  <Title>  (1226) 
idABVDgen8

$$$$

     RDKit          2D

 35 40  0  0  0  0  0  0  0  0999 V2000
    3.6172    7.2057    0.0000 O   0  0  0  0  0  0  0  0  0  0  0  0
    4.8308    6.3240    0.0000 C   0  0  0  0  0  0  0  0  0  0  0  0
    6.2011    6.9341    0.0000 N   0  0  0  0  0  0  0  0  0  0  0  0
    7.4146    6.0524    0.0000 C   0  0  0  0  0  0  0  0  0  0  0  0
    8.7849    6.6625    0.0000 O   0  0  0  0  0  0  0  0  0  0  0  0
    7.2578    4.5606    0.0000 C   0  0  0  0  0  0  0  0  0  0  0  0
    5.8875    3.9505    0.0000 C   0  0  0  0  0  0  0  0  0  0  0  0
    4.6740    4.8322    0.0000 C   0  0  0  0  0  0  0  0  0  0  0  0
    3.3037    4.2221    0.0000 C   0  0  0  0  0  0  0  0  0  0  0  0
    2.0046    4.9721    0.0000 N   0  0  0  0  0  0  0  0  0  0  0  0
    0.8899    3.9684    0.0000 N   0  0  0  0  0  0  0  0  0  0  0  0
    1.5000    2.5981    0.0000 N   0  0  0  0  0  0  0  0  0  0  0  0
    2.9918    2.7549    0.0000 N   0  0  0  0  0  0  0  0  0  0  0  0
    3.9955    1.6402    0.0000 C   0  0  0  0  0  0  0  0  0  0  0  0
    5.4873    1.7969    0.0000 C   0  0  0  0  0  0  0  0  0  0  0  0
    6.0974    0.4266    0.0000 C   0  0  0  0  0  0  0  0  0  0  0  0
    4.9826   -0.5771    0.0000 C   0  0  0  0  0  0  0  0  0  0  0  0
    5.1394   -2.0689    0.0000 C   0  0  0  0  0  0  0  0  0  0  0  0
    4.0247   -3.0725    0.0000 C   0  0  0  0  0  0  0  0  0  0  0  0
    4.6348   -4.4429    0.0000 N   0  0  0  0  0  0  0  0  0  0  0  0
    6.1266   -4.2861    0.0000 N   0  0  0  0  0  0  0  0  0  0  0  0
    6.4385   -2.8189    0.0000 N   0  0  0  0  0  0  0  0  0  0  0  0
    7.8088   -2.2087    0.0000 C   0  0  0  0  0  0  0  0  0  0  0  0
    8.1207   -0.7415    0.0000 N   0  0  0  0  0  0  0  0  0  0  0  0
    9.6124   -0.5847    0.0000 N   0  0  0  0  0  0  0  0  0  0  0  0
   10.2226   -1.9551    0.0000 N   0  0  0  0  0  0  0  0  0  0  0  0
    9.1078   -2.9587    0.0000 N   0  0  0  0  0  0  0  0  0  0  0  0
    9.2646   -4.4505    0.0000 C   0  0  0  0  0  0  0  0  0  0  0  0
    8.0511   -5.3322    0.0000 C   0  0  0  0  0  0  0  0  0  0  0  0
    8.2079   -6.8240    0.0000 C   0  0  0  0  0  0  0  0  0  0  0  0
    9.5782   -7.4341    0.0000 C   0  0  0  0  0  0  0  0  0  0  0  0
   10.7917   -6.5524    0.0000 C   0  0  0  0  0  0  0  0  0  0  0  0
   10.6349   -5.0606    0.0000 C   0  0  0  0  0  0  0  0  0  0  0  0
    3.6836    0.1729    0.0000 C   0  0  0  0  0  0  0  0  0  0  0  0
    2.3133   -0.4372    0.0000 O   0  0  0  0  0  0  0  0  0  0  0  0
  1  2  2  0
  2  3  1  0
  3  4  1  0
  4  5  1  0
  4  6  2  0
  6  7  1  0
  7  8  2  0
  8  9  1  0
  9 10  2  0
 10 11  1  0
 11 12  2  0
 12 13  1  0
 13 14  1  0
 14 15  2  0
 15 16  1  0
 16 17  2  0
 17 18  1  0
 18 19  2  0
 19 20  1  0
 20 21  2  0
 21 22  1  0
 22 23  1  0
 23 24  2  0
 24 25  1  0
 25 26  2  0
 26 27  1  0
 27 28  1  0
 28 29  2  0
 29 30  1  0
 30 31  2  0
 31 32  1  0
 32 33  2  0
 17 34  1  0
 34 35  2  0
  8  2  1  0
 13  9  1  0
 34 14  1  0
 22 18  1  0
 27 23  1  0
 33 28  1  0
M  END
>  <Title>  (1227) 
idABVEgen8

$$$$

     RDKit          2D

 30 30  0  0  0  0  0  0  0  0999 V2000
    8.4368    0.0000    0.0000 C   0  0  0  0  0  0  0  0  0  0  0  0
    6.9368    0.0000    0.0000 C   0  0  0  0  0  0  0  0  0  0  0  0
    6.7746    1.4912    0.0000 C   0  0  0  0  0  0  0  0  0  0  0  0
    6.2957    2.9127    0.0000 C   0  0  0  0  0  0  0  0  0  0  0  0
    5.5223    4.1980    0.0000 C   0  0  0  0  0  0  0  0  0  0  0  0
    4.4908    5.2870    0.0000 C   0  0  0  0  0  0  0  0  0  0  0  0
    3.2493    6.1287    0.0000 C   0  0  0  0  0  0  0  0  0  0  0  0
    1.8558    6.6840    0.0000 C   0  0  0  0  0  0  0  0  0  0  0  0
    0.3756    6.9266    0.0000 C   0  0  0  0  0  0  0  0  0  0  0  0
   -1.1222    6.8454    0.0000 C   0  0  0  0  0  0  0  0  0  0  0  0
   -2.5676    6.4441    0.0000 C   0  0  0  0  0  0  0  0  0  0  0  0
   -3.8928    5.7415    0.0000 C   0  0  0  0  0  0  0  0  0  0  0  0
   -5.0361    4.7704    0.0000 C   0  0  0  0  0  0  0  0  0  0  0  0
   -5.9438    3.5763    0.0000 C   0  0  0  0  0  0  0  0  0  0  0  0
   -6.5737    2.2149    0.0000 C   0  0  0  0  0  0  0  0  0  0  0  0
   -6.8961    0.7500    0.0000 C   0  0  0  0  0  0  0  0  0  0  0  0
   -6.8961   -0.7500    0.0000 C   0  0  0  0  0  0  0  0  0  0  0  0
   -6.5737   -2.2149    0.0000 C   0  0  0  0  0  0  0  0  0  0  0  0
   -5.9438   -3.5763    0.0000 C   0  0  0  0  0  0  0  0  0  0  0  0
   -5.0361   -4.7704    0.0000 C   0  0  0  0  0  0  0  0  0  0  0  0
   -3.8928   -5.7415    0.0000 C   0  0  0  0  0  0  0  0  0  0  0  0
   -2.5676   -6.4441    0.0000 C   0  0  0  0  0  0  0  0  0  0  0  0
   -1.1222   -6.8454    0.0000 C   0  0  0  0  0  0  0  0  0  0  0  0
    0.3756   -6.9266    0.0000 C   0  0  0  0  0  0  0  0  0  0  0  0
    1.8558   -6.6840    0.0000 C   0  0  0  0  0  0  0  0  0  0  0  0
    3.2493   -6.1287    0.0000 C   0  0  0  0  0  0  0  0  0  0  0  0
    4.4908   -5.2870    0.0000 C   0  0  0  0  0  0  0  0  0  0  0  0
    5.5223   -4.1980    0.0000 C   0  0  0  0  0  0  0  0  0  0  0  0
    6.2957   -2.9127    0.0000 C   0  0  0  0  0  0  0  0  0  0  0  0
    6.7746   -1.4912    0.0000 C   0  0  0  0  0  0  0  0  0  0  0  0
  1  2  1  0
  2  3  2  0
  3  4  1  0
  4  5  2  0
  5  6  2  0
  6  7  1  0
  7  8  2  0
  8  9  1  0
  9 10  2  0
 10 11  1  0
 11 12  2  0
 12 13  1  0
 13 14  2  0
 14 15  1  0
 15 16  2  0
 16 17  1  0
 17 18  2  0
 18 19  1  0
 19 20  2  0
 20 21  1  0
 21 22  2  0
 22 23  1  0
 23 24  2  0
 24 25  1  0
 25 26  2  0
 26 27  1  0
 27 28  2  0
 28 29  1  0
 29 30  2  0
 30  2  1  0
M  END
>  <Title>  (1228) 
idABVFgen8

$$$$

     RDKit          2D

 19 20  0  0  0  0  0  0  0  0999 V2000
    6.3019    5.8189    0.0000 N   0  0  0  0  0  0  0  0  0  0  0  0
    6.8499    4.4226    0.0000 C   0  0  0  0  0  0  0  0  0  0  0  0
    8.3332    4.1990    0.0000 C   0  0  0  0  0  0  0  0  0  0  0  0
    8.8812    2.8027    0.0000 C   0  0  0  0  0  0  0  0  0  0  0  0
    7.9460    1.6299    0.0000 C   0  0  0  0  0  0  0  0  0  0  0  0
    6.4627    1.8535    0.0000 C   0  0  0  0  0  0  0  0  0  0  0  0
    5.9147    3.2498    0.0000 C   0  0  0  0  0  0  0  0  0  0  0  0
    4.4315    3.4734    0.0000 C   0  0  0  0  0  0  0  0  0  0  0  0
    3.8835    4.8697    0.0000 C   0  0  0  0  0  0  0  0  0  0  0  0
    4.8187    6.0424    0.0000 O   0  0  0  0  0  0  0  0  0  0  0  0
    3.4962    2.3006    0.0000 C   0  0  0  0  0  0  0  0  0  0  0  0
    2.0130    2.5242    0.0000 C   0  0  0  0  0  0  0  0  0  0  0  0
    1.0777    1.3515    0.0000 C   0  0  0  0  0  0  0  0  0  0  0  0
    1.7286    0.0000    0.0000 C   0  0  0  0  0  0  0  0  0  0  0  0
    1.0777   -1.3515    0.0000 C   0  0  0  0  0  0  0  0  0  0  0  0
   -0.3846   -1.6852    0.0000 C   0  0  0  0  0  0  0  0  0  0  0  0
   -1.5574   -0.7500    0.0000 C   0  0  0  0  0  0  0  0  0  0  0  0
   -1.5574    0.7500    0.0000 C   0  0  0  0  0  0  0  0  0  0  0  0
   -0.3846    1.6852    0.0000 C   0  0  0  0  0  0  0  0  0  0  0  0
  1  2  1  0
  2  3  2  0
  3  4  1  0
  4  5  2  0
  5  6  1  0
  6  7  2  0
  7  8  1  0
  8  9  1  0
  9 10  1  0
  8 11  1  0
 11 12  1  0
 12 13  1  0
 13 14  1  0
 14 15  2  0
 15 16  1  0
 16 17  2  0
 17 18  1  0
 18 19  1  0
  7  2  1  0
 19 13  1  0
M  END
>  <Title>  (1229) 
idABVGgen8

$$$$

     RDKit          2D

 33 37  0  0  0  0  0  0  0  0999 V2000
    3.0000    0.0000    0.0000 C   0  0  0  0  0  0  0  0  0  0  0  0
    1.5000    0.0000    0.0000 C   0  0  0  0  0  0  0  0  0  0  0  0
    0.7500   -1.2990    0.0000 C   0  0  0  0  0  0  0  0  0  0  0  0
   -0.7500   -1.2990    0.0000 C   0  0  0  0  0  0  0  0  0  0  0  0
   -1.5000    0.0000    0.0000 C   0  0  0  0  0  0  0  0  0  0  0  0
   -3.0000    0.0000    0.0000 C   0  0  0  0  0  0  0  0  0  0  0  0
   -3.7500   -1.2990    0.0000 O   0  0  0  0  0  0  0  0  0  0  0  0
   -3.7500    1.2990    0.0000 N   0  0  0  0  0  0  0  0  0  0  0  0
   -5.2500    1.2990    0.0000 C   0  0  0  0  0  0  0  0  0  0  0  0
   -6.1317    0.0855    0.0000 N   0  0  0  0  0  0  0  0  0  0  0  0
   -7.5583    0.5490    0.0000 N   0  0  0  0  0  0  0  0  0  0  0  0
   -7.5583    2.0490    0.0000 N   0  0  0  0  0  0  0  0  0  0  0  0
   -6.1317    2.5126    0.0000 N   0  0  0  0  0  0  0  0  0  0  0  0
   -5.6682    3.9391    0.0000 C   0  0  0  0  0  0  0  0  0  0  0  0
   -4.2009    4.2510    0.0000 C   0  0  0  0  0  0  0  0  0  0  0  0
   -3.7374    5.6776    0.0000 C   0  0  0  0  0  0  0  0  0  0  0  0
   -4.7411    6.7923    0.0000 C   0  0  0  0  0  0  0  0  0  0  0  0
   -4.2776    8.2189    0.0000 C   0  0  0  0  0  0  0  0  0  0  0  0
   -5.1593    9.4324    0.0000 N   0  0  0  0  0  0  0  0  0  0  0  0
   -4.2776   10.6460    0.0000 N   0  0  0  0  0  0  0  0  0  0  0  0
   -2.8510   10.1824    0.0000 N   0  0  0  0  0  0  0  0  0  0  0  0
   -2.8510    8.6824    0.0000 N   0  0  0  0  0  0  0  0  0  0  0  0
   -1.6375    7.8008    0.0000 C   0  0  0  0  0  0  0  0  0  0  0  0
   -1.7943    6.3090    0.0000 C   0  0  0  0  0  0  0  0  0  0  0  0
   -0.5807    5.4273    0.0000 C   0  0  0  0  0  0  0  0  0  0  0  0
    0.7896    6.0374    0.0000 C   0  0  0  0  0  0  0  0  0  0  0  0
    0.9464    7.5292    0.0000 C   0  0  0  0  0  0  0  0  0  0  0  0
   -0.2671    8.4109    0.0000 C   0  0  0  0  0  0  0  0  0  0  0  0
   -6.2083    6.4805    0.0000 C   0  0  0  0  0  0  0  0  0  0  0  0
   -6.6718    5.0539    0.0000 C   0  0  0  0  0  0  0  0  0  0  0  0
   -0.7500    1.2990    0.0000 C   0  0  0  0  0  0  0  0  0  0  0  0
    0.7500    1.2990    0.0000 C   0  0  0  0  0  0  0  0  0  0  0  0
    1.5000    2.5981    0.0000 C   0  0  0  0  0  0  0  0  0  0  0  0
  1  2  1  0
  2  3  2  0
  3  4  1  0
  4  5  2  0
  5  6  1  0
  6  7  2  0
  6  8  1  0
  8  9  1  0
  9 10  2  0
 10 11  1  0
 11 12  2  0
 12 13  1  0
 13 14  1  0
 14 15  2  0
 15 16  1  0
 16 17  2  0
 17 18  1  0
 18 19  2  0
 19 20  1  0
 20 21  2  0
 21 22  1  0
 22 23  1  0
 23 24  2  0
 24 25  1  0
 25 26  2  0
 26 27  1  0
 27 28  2  0
 17 29  1  0
 29 30  2  0
  5 31  1  0
 31 32  2  0
 32 33  1  0
 32  2  1  0
 13  9  1  0
 30 14  1  0
 22 18  1  0
 28 23  1  0
M  END
>  <Title>  (1230) 
idABVHgen8

$$$$

     RDKit          2D

 11 12  0  0  0  0  0  0  0  0999 V2000
   -2.6380    5.6918    0.0000 C   0  0  0  0  0  0  0  0  0  0  0  0
   -2.9499    4.2246    0.0000 O   0  0  0  0  0  0  0  0  0  0  0  0
   -1.8351    3.2209    0.0000 C   0  0  0  0  0  0  0  0  0  0  0  0
   -0.4086    3.6844    0.0000 C   0  0  0  0  0  0  0  0  0  0  0  0
    0.7062    2.6807    0.0000 C   0  0  0  0  0  0  0  0  0  0  0  0
    0.3943    1.2135    0.0000 C   0  0  0  0  0  0  0  0  0  0  0  0
    1.2760    0.0000    0.0000 C   0  0  0  0  0  0  0  0  0  0  0  0
    0.3943   -1.2135    0.0000 C   0  0  0  0  0  0  0  0  0  0  0  0
   -1.0323   -0.7500    0.0000 C   0  0  0  0  0  0  0  0  0  0  0  0
   -1.0323    0.7500    0.0000 C   0  0  0  0  0  0  0  0  0  0  0  0
   -2.1470    1.7537    0.0000 N   0  0  0  0  0  0  0  0  0  0  0  0
  1  2  1  0
  2  3  1  0
  3  4  2  0
  4  5  1  0
  5  6  2  0
  6  7  1  0
  7  8  2  0
  8  9  1  0
  9 10  2  0
 10 11  1  0
 11  3  1  0
 10  6  1  0
M  END
>  <Title>  (1231) 
idABVIgen8

$$$$

     RDKit          2D

 38 42  0  0  0  0  0  0  0  0999 V2000
  -12.7500   -6.4952    0.0000 C   0  0  0  0  0  0  0  0  0  0  0  0
  -12.0000   -5.1962    0.0000 C   0  0  0  0  0  0  0  0  0  0  0  0
  -12.7500   -3.8971    0.0000 C   0  0  0  0  0  0  0  0  0  0  0  0
  -12.0000   -2.5981    0.0000 C   0  0  0  0  0  0  0  0  0  0  0  0
  -10.5000   -2.5981    0.0000 C   0  0  0  0  0  0  0  0  0  0  0  0
   -9.7500   -1.2990    0.0000 C   0  0  0  0  0  0  0  0  0  0  0  0
  -10.5000    0.0000    0.0000 O   0  0  0  0  0  0  0  0  0  0  0  0
   -8.2500   -1.2990    0.0000 N   0  0  0  0  0  0  0  0  0  0  0  0
   -7.5000    0.0000    0.0000 N   0  0  0  0  0  0  0  0  0  0  0  0
   -8.2500    1.2990    0.0000 C   0  0  0  0  0  0  0  0  0  0  0  0
   -7.5000    2.5981    0.0000 N   0  0  0  0  0  0  0  0  0  0  0  0
   -6.0000    2.5981    0.0000 N   0  0  0  0  0  0  0  0  0  0  0  0
   -5.2500    1.2990    0.0000 N   0  0  0  0  0  0  0  0  0  0  0  0
   -6.0000    0.0000    0.0000 N   0  0  0  0  0  0  0  0  0  0  0  0
   -5.2500   -1.2990    0.0000 C   0  0  0  0  0  0  0  0  0  0  0  0
   -6.0000   -2.5981    0.0000 N   0  0  0  0  0  0  0  0  0  0  0  0
   -5.2500   -3.8971    0.0000 C   0  0  0  0  0  0  0  0  0  0  0  0
   -3.7500   -3.8971    0.0000 N   0  0  0  0  0  0  0  0  0  0  0  0
   -3.0000   -2.5981    0.0000 N   0  0  0  0  0  0  0  0  0  0  0  0
   -3.7500   -1.2990    0.0000 N   0  0  0  0  0  0  0  0  0  0  0  0
   -3.0000   -0.0000    0.0000 C   0  0  0  0  0  0  0  0  0  0  0  0
   -1.5000   -0.0000    0.0000 C   0  0  0  0  0  0  0  0  0  0  0  0
   -0.7500    1.2990    0.0000 C   0  0  0  0  0  0  0  0  0  0  0  0
   -1.5000    2.5981    0.0000 C   0  0  0  0  0  0  0  0  0  0  0  0
   -0.7500    3.8971    0.0000 C   0  0  0  0  0  0  0  0  0  0  0  0
    0.7500    3.8971    0.0000 C   0  0  0  0  0  0  0  0  0  0  0  0
    1.5000    5.1962    0.0000 C   0  0  0  0  0  0  0  0  0  0  0  0
    0.7500    6.4952    0.0000 C   0  0  0  0  0  0  0  0  0  0  0  0
    1.5000    7.7942    0.0000 C   0  0  0  0  0  0  0  0  0  0  0  0
    0.7500    9.0933    0.0000 O   0  0  0  0  0  0  0  0  0  0  0  0
    3.0000    7.7942    0.0000 N   0  0  0  0  0  0  0  0  0  0  0  0
    3.7500    9.0933    0.0000 O   0  0  0  0  0  0  0  0  0  0  0  0
   -0.7500    6.4952    0.0000 C   0  0  0  0  0  0  0  0  0  0  0  0
   -1.5000    5.1962    0.0000 C   0  0  0  0  0  0  0  0  0  0  0  0
   -3.0000    2.5981    0.0000 C   0  0  0  0  0  0  0  0  0  0  0  0
   -3.7500    1.2990    0.0000 C   0  0  0  0  0  0  0  0  0  0  0  0
   -9.7500   -3.8971    0.0000 C   0  0  0  0  0  0  0  0  0  0  0  0
  -10.5000   -5.1962    0.0000 N   0  0  0  0  0  0  0  0  0  0  0  0
  1  2  1  0
  2  3  2  0
  3  4  1  0
  4  5  2  0
  5  6  1  0
  6  7  2  0
  6  8  1  0
  8  9  1  0
  9 10  1  0
 10 11  1  0
 11 12  1  0
 12 13  2  0
 13 14  1  0
 14 15  1  0
 15 16  1  0
 16 17  1  0
 17 18  1  0
 18 19  2  0
 19 20  1  0
 20 21  1  0
 21 22  2  0
 22 23  1  0
 23 24  2  0
 24 25  1  0
 25 26  2  0
 26 27  1  0
 27 28  2  0
 28 29  1  0
 29 30  2  0
 29 31  1  0
 31 32  1  0
 28 33  1  0
 33 34  1  0
 24 35  1  0
 35 36  2  0
  5 37  1  0
 37 38  2  0
 38  2  1  0
 14  9  1  0
 20 15  1  0
 36 21  1  0
 34 25  1  0
M  END
>  <Title>  (1232) 
idABVJgen8

$$$$

     RDKit          2D

 25 27  0  0  0  0  0  0  0  0999 V2000
    3.4598   -0.0000    0.0000 C   0  0  0  0  0  0  0  0  0  0  0  0
    1.9598    0.0000    0.0000 C   0  0  0  0  0  0  0  0  0  0  0  0
    1.3858   -1.3858    0.0000 C   0  0  0  0  0  0  0  0  0  0  0  0
   -0.0000   -1.9598    0.0000 C   0  0  0  0  0  0  0  0  0  0  0  0
   -1.3858   -1.3858    0.0000 N   0  0  0  0  0  0  0  0  0  0  0  0
   -1.9598    0.0000    0.0000 C   0  0  0  0  0  0  0  0  0  0  0  0
   -3.4598    0.0000    0.0000 N   0  0  0  0  0  0  0  0  0  0  0  0
   -4.3415   -1.2135    0.0000 N   0  0  0  0  0  0  0  0  0  0  0  0
   -5.7681   -0.7500    0.0000 N   0  0  0  0  0  0  0  0  0  0  0  0
   -5.7681    0.7500    0.0000 N   0  0  0  0  0  0  0  0  0  0  0  0
   -4.3415    1.2135    0.0000 C   0  0  0  0  0  0  0  0  0  0  0  0
   -3.8780    2.6401    0.0000 C   0  0  0  0  0  0  0  0  0  0  0  0
   -2.4108    2.9520    0.0000 C   0  0  0  0  0  0  0  0  0  0  0  0
   -1.9472    4.3786    0.0000 C   0  0  0  0  0  0  0  0  0  0  0  0
   -2.9509    5.4933    0.0000 C   0  0  0  0  0  0  0  0  0  0  0  0
   -2.4874    6.9199    0.0000 C   0  0  0  0  0  0  0  0  0  0  0  0
   -4.4182    5.1814    0.0000 C   0  0  0  0  0  0  0  0  0  0  0  0
   -4.8817    3.7548    0.0000 C   0  0  0  0  0  0  0  0  0  0  0  0
   -1.3858    1.3858    0.0000 C   0  0  0  0  0  0  0  0  0  0  0  0
    0.0000    1.9598    0.0000 C   0  0  0  0  0  0  0  0  0  0  0  0
    1.3858    1.3858    0.0000 C   0  0  0  0  0  0  0  0  0  0  0  0
    2.4465    2.4465    0.0000 C   0  0  0  0  0  0  0  0  0  0  0  0
    3.8954    2.0583    0.0000 O   0  0  0  0  0  0  0  0  0  0  0  0
    2.0583    3.8954    0.0000 N   0  0  0  0  0  0  0  0  0  0  0  0
    3.1189    4.9560    0.0000 O   0  0  0  0  0  0  0  0  0  0  0  0
  1  2  1  0
  2  3  2  0
  3  4  1  0
  4  5  2  0
  5  6  1  0
  6  7  1  0
  7  8  1  0
  8  9  2  0
  9 10  1  0
 10 11  2  0
 11 12  1  0
 12 13  2  0
 13 14  1  0
 14 15  2  0
 15 16  1  0
 15 17  1  0
 17 18  2  0
  6 19  2  0
 19 20  1  0
 20 21  2  0
 21 22  1  0
 22 23  2  0
 22 24  1  0
 24 25  1  0
 21  2  1  0
 11  7  1  0
 18 12  1  0
M  END
>  <Title>  (1233) 
idABVKgen8

$$$$

     RDKit          2D

 44 47  0  0  0  0  0  0  0  0999 V2000
    3.4192    7.0539    0.0000 C   0  0  0  0  0  0  0  0  0  0  0  0
    2.5195    5.8537    0.0000 O   0  0  0  0  0  0  0  0  0  0  0  0
    1.0302    6.0328    0.0000 C   0  0  0  0  0  0  0  0  0  0  0  0
    1.0526    7.5327    0.0000 C   0  0  0  0  0  0  0  0  0  0  0  0
    0.7628    9.0044    0.0000 C   0  0  0  0  0  0  0  0  0  0  0  0
    0.1732   10.3837    0.0000 C   0  0  0  0  0  0  0  0  0  0  0  0
   -0.6902   11.6102    0.0000 C   0  0  0  0  0  0  0  0  0  0  0  0
   -1.7898   12.6305    0.0000 C   0  0  0  0  0  0  0  0  0  0  0  0
   -3.0775   13.3999    0.0000 C   0  0  0  0  0  0  0  0  0  0  0  0
   -4.4969   13.8847    0.0000 C   0  0  0  0  0  0  0  0  0  0  0  0
   -5.9862   14.0638    0.0000 C   0  0  0  0  0  0  0  0  0  0  0  0
   -7.4802   13.9293    0.0000 C   0  0  0  0  0  0  0  0  0  0  0  0
   -8.9135   13.4872    0.0000 C   0  0  0  0  0  0  0  0  0  0  0  0
  -10.2236   12.7567    0.0000 C   0  0  0  0  0  0  0  0  0  0  0  0
  -11.3533   11.7698    0.0000 C   0  0  0  0  0  0  0  0  0  0  0  0
  -12.2530   10.5696    0.0000 C   0  0  0  0  0  0  0  0  0  0  0  0
  -12.8835    9.2085    0.0000 C   0  0  0  0  0  0  0  0  0  0  0  0
  -13.2173    7.7461    0.0000 C   0  0  0  0  0  0  0  0  0  0  0  0
  -13.2397    6.2463    0.0000 C   0  0  0  0  0  0  0  0  0  0  0  0
  -12.9499    4.7746    0.0000 C   0  0  0  0  0  0  0  0  0  0  0  0
  -12.3603    3.3953    0.0000 C   0  0  0  0  0  0  0  0  0  0  0  0
  -11.4969    2.1687    0.0000 C   0  0  0  0  0  0  0  0  0  0  0  0
  -10.3973    1.1485    0.0000 C   0  0  0  0  0  0  0  0  0  0  0  0
   -9.1096    0.3791    0.0000 C   0  0  0  0  0  0  0  0  0  0  0  0
   -7.6902   -0.1057    0.0000 C   0  0  0  0  0  0  0  0  0  0  0  0
   -6.2009   -0.2848    0.0000 C   0  0  0  0  0  0  0  0  0  0  0  0
   -4.7069   -0.1503    0.0000 C   0  0  0  0  0  0  0  0  0  0  0  0
   -3.2736    0.2918    0.0000 C   0  0  0  0  0  0  0  0  0  0  0  0
   -1.9635    1.0223    0.0000 C   0  0  0  0  0  0  0  0  0  0  0  0
   -0.6899    2.2501    0.0000 C   0  0  0  0  0  0  0  0  0  0  0  0
   -0.5554    3.7441    0.0000 C   0  0  0  0  0  0  0  0  0  0  0  0
    0.6964    4.5704    0.0000 C   0  0  0  0  0  0  0  0  0  0  0  0
    2.1230    4.1069    0.0000 C   0  0  0  0  0  0  0  0  0  0  0  0
    2.6501    2.7025    0.0000 C   0  0  0  0  0  0  0  0  0  0  0  0
    4.1499    2.6801    0.0000 C   0  0  0  0  0  0  0  0  0  0  0  0
    4.8804    1.3700    0.0000 C   0  0  0  0  0  0  0  0  0  0  0  0
    4.1110    0.0823    0.0000 C   0  0  0  0  0  0  0  0  0  0  0  0
    2.6112    0.1048    0.0000 C   0  0  0  0  0  0  0  0  0  0  0  0
    1.8807    1.4149    0.0000 C   0  0  0  0  0  0  0  0  0  0  0  0
    0.3943    1.2135    0.0000 C   0  0  0  0  0  0  0  0  0  0  0  0
    1.2760    0.0000    0.0000 C   0  0  0  0  0  0  0  0  0  0  0  0
    0.3943   -1.2135    0.0000 C   0  0  0  0  0  0  0  0  0  0  0  0
   -1.0323   -0.7500    0.0000 C   0  0  0  0  0  0  0  0  0  0  0  0
   -1.0323    0.7500    0.0000 C   0  0  0  0  0  0  0  0  0  0  0  0
  1  2  1  0
  2  3  1  0
  3  4  2  0
  4  5  1  0
  5  6  2  0
  6  7  1  0
  7  8  2  0
  8  9  1  0
  9 10  2  0
 10 11  1  0
 11 12  2  0
 12 13  1  0
 13 14  2  0
 14 15  1  0
 15 16  2  0
 16 17  1  0
 17 18  2  0
 18 19  1  0
 19 20  2  0
 20 21  1  0
 21 22  2  0
 22 23  1  0
 23 24  2  0
 24 25  1  0
 25 26  2  0
 26 27  1  0
 27 28  2  0
 28 29  1  0
 29 30  2  0
 30 31  1  0
 31 32  2  0
 32 33  1  0
 33 34  1  0
 34 35  2  0
 35 36  1  0
 36 37  2  0
 37 38  1  0
 38 39  2  0
 39 40  1  0
 40 41  1  0
 41 42  2  0
 42 43  1  0
 43 44  2  0
 32  3  1  0
 39 34  1  0
 44 40  1  0
 40 30  1  0
M  END
>  <Title>  (1234) 
idABVLgen8

$$$$

     RDKit          2D

 40 44  0  0  0  0  0  0  0  0999 V2000
    5.6205   -1.2990    0.0000 C   0  0  0  0  0  0  0  0  0  0  0  0
    4.8705    0.0000    0.0000 O   0  0  0  0  0  0  0  0  0  0  0  0
    3.3705    0.0000    0.0000 C   0  0  0  0  0  0  0  0  0  0  0  0
    3.0367   -1.4624    0.0000 C   0  0  0  0  0  0  0  0  0  0  0  0
    2.1015   -2.6351    0.0000 C   0  0  0  0  0  0  0  0  0  0  0  0
    0.7500   -3.2860    0.0000 C   0  0  0  0  0  0  0  0  0  0  0  0
   -0.7500   -3.2860    0.0000 C   0  0  0  0  0  0  0  0  0  0  0  0
   -2.1015   -2.6351    0.0000 C   0  0  0  0  0  0  0  0  0  0  0  0
   -3.0367   -3.8079    0.0000 F   0  0  0  0  0  0  0  0  0  0  0  0
   -3.0367   -1.4624    0.0000 C   0  0  0  0  0  0  0  0  0  0  0  0
   -3.3705    0.0000    0.0000 C   0  0  0  0  0  0  0  0  0  0  0  0
   -3.0367    1.4624    0.0000 C   0  0  0  0  0  0  0  0  0  0  0  0
   -2.1015    2.6351    0.0000 C   0  0  0  0  0  0  0  0  0  0  0  0
   -0.7500    3.2860    0.0000 C   0  0  0  0  0  0  0  0  0  0  0  0
    0.7500    3.2860    0.0000 C   0  0  0  0  0  0  0  0  0  0  0  0
    1.0838    4.7484    0.0000 N   0  0  0  0  0  0  0  0  0  0  0  0
    2.5171    5.1905    0.0000 C   0  0  0  0  0  0  0  0  0  0  0  0
    2.8509    6.6529    0.0000 N   0  0  0  0  0  0  0  0  0  0  0  0
    1.7513    7.6731    0.0000 N   0  0  0  0  0  0  0  0  0  0  0  0
    0.3180    7.2310    0.0000 N   0  0  0  0  0  0  0  0  0  0  0  0
   -0.0158    5.7686    0.0000 N   0  0  0  0  0  0  0  0  0  0  0  0
   -1.4492    5.3265    0.0000 C   0  0  0  0  0  0  0  0  0  0  0  0
   -2.5487    6.3467    0.0000 C   0  0  0  0  0  0  0  0  0  0  0  0
   -3.9821    5.9046    0.0000 C   0  0  0  0  0  0  0  0  0  0  0  0
   -4.3159    4.4422    0.0000 C   0  0  0  0  0  0  0  0  0  0  0  0
   -5.7492    4.0001    0.0000 C   0  0  0  0  0  0  0  0  0  0  0  0
   -6.2340    2.5806    0.0000 C   0  0  0  0  0  0  0  0  0  0  0  0
   -7.7339    2.6030    0.0000 N   0  0  0  0  0  0  0  0  0  0  0  0
   -8.1760    4.0364    0.0000 N   0  0  0  0  0  0  0  0  0  0  0  0
   -6.9494    4.8998    0.0000 N   0  0  0  0  0  0  0  0  0  0  0  0
   -6.9270    6.3996    0.0000 C   0  0  0  0  0  0  0  0  0  0  0  0
   -5.6169    7.1301    0.0000 C   0  0  0  0  0  0  0  0  0  0  0  0
   -5.5944    8.6300    0.0000 C   0  0  0  0  0  0  0  0  0  0  0  0
   -6.8821    9.3993    0.0000 C   0  0  0  0  0  0  0  0  0  0  0  0
   -8.1922    8.6688    0.0000 C   0  0  0  0  0  0  0  0  0  0  0  0
   -8.2147    7.1690    0.0000 C   0  0  0  0  0  0  0  0  0  0  0  0
   -3.2163    3.4220    0.0000 C   0  0  0  0  0  0  0  0  0  0  0  0
   -1.7829    3.8641    0.0000 C   0  0  0  0  0  0  0  0  0  0  0  0
    2.1015    2.6351    0.0000 C   0  0  0  0  0  0  0  0  0  0  0  0
    3.0367    1.4624    0.0000 C   0  0  0  0  0  0  0  0  0  0  0  0
  1  2  1  0
  2  3  1  0
  3  4  2  0
  4  5  1  0
  5  6  2  0
  6  7  2  0
  7  8  2  0
  8  9  1  0
  8 10  1  0
 10 11  2  0
 11 12  1  0
 12 13  2  0
 13 14  1  0
 14 15  2  0
 15 16  1  0
 16 17  1  0
 17 18  2  0
 18 19  1  0
 19 20  2  0
 20 21  1  0
 21 22  1  0
 22 23  2  0
 23 24  1  0
 24 25  2  0
 25 26  1  0
 26 27  2  0
 27 28  1  0
 28 29  2  0
 29 30  1  0
 30 31  1  0
 31 32  2  0
 32 33  1  0
 33 34  2  0
 34 35  1  0
 35 36  2  0
 25 37  1  0
 37 38  2  0
 15 39  1  0
 39 40  2  0
 40  3  1  0
 21 16  1  0
 38 22  1  0
 30 26  1  0
 36 31  1  0
M  END
>  <Title>  (1235) 
idABVMgen8

$$$$

     RDKit          2D

 27 30  0  0  0  0  0  0  0  0999 V2000
    4.2098   -1.2990    0.0000 C   0  0  0  0  0  0  0  0  0  0  0  0
    3.4598   -0.0000    0.0000 O   0  0  0  0  0  0  0  0  0  0  0  0
    1.9598    0.0000    0.0000 C   0  0  0  0  0  0  0  0  0  0  0  0
    1.3858   -1.3858    0.0000 C   0  0  0  0  0  0  0  0  0  0  0  0
   -0.0000   -1.9598    0.0000 C   0  0  0  0  0  0  0  0  0  0  0  0
   -1.3858   -1.3858    0.0000 C   0  0  0  0  0  0  0  0  0  0  0  0
   -1.9598    0.0000    0.0000 C   0  0  0  0  0  0  0  0  0  0  0  0
   -1.3858    1.3858    0.0000 C   0  0  0  0  0  0  0  0  0  0  0  0
   -2.4465    2.4465    0.0000 N   0  0  0  0  0  0  0  0  0  0  0  0
   -3.9280    2.2118    0.0000 C   0  0  0  0  0  0  0  0  0  0  0  0
   -4.6090    3.5483    0.0000 C   0  0  0  0  0  0  0  0  0  0  0  0
   -3.5483    4.6090    0.0000 C   0  0  0  0  0  0  0  0  0  0  0  0
   -3.7830    6.0905    0.0000 C   0  0  0  0  0  0  0  0  0  0  0  0
   -5.1195    6.7715    0.0000 N   0  0  0  0  0  0  0  0  0  0  0  0
   -4.8848    8.2530    0.0000 N   0  0  0  0  0  0  0  0  0  0  0  0
   -3.4033    8.4877    0.0000 N   0  0  0  0  0  0  0  0  0  0  0  0
   -2.7223    7.1512    0.0000 N   0  0  0  0  0  0  0  0  0  0  0  0
   -1.2408    6.9165    0.0000 C   0  0  0  0  0  0  0  0  0  0  0  0
   -0.3866    8.1495    0.0000 C   0  0  0  0  0  0  0  0  0  0  0  0
    1.1100    8.2504    0.0000 C   0  0  0  0  0  0  0  0  0  0  0  0
    2.1220    7.1433    0.0000 C   0  0  0  0  0  0  0  0  0  0  0  0
    1.8874    5.6617    0.0000 C   0  0  0  0  0  0  0  0  0  0  0  0
    0.5828    4.9215    0.0000 N   0  0  0  0  0  0  0  0  0  0  0  0
   -0.8094    5.4799    0.0000 C   0  0  0  0  0  0  0  0  0  0  0  0
   -2.2118    3.9280    0.0000 C   0  0  0  0  0  0  0  0  0  0  0  0
    0.0000    1.9598    0.0000 C   0  0  0  0  0  0  0  0  0  0  0  0
    1.3858    1.3858    0.0000 C   0  0  0  0  0  0  0  0  0  0  0  0
  1  2  1  0
  2  3  1  0
  3  4  2  0
  4  5  1  0
  5  6  2  0
  6  7  1  0
  7  8  2  0
  8  9  1  0
  9 10  1  0
 10 11  2  0
 11 12  1  0
 12 13  1  0
 13 14  2  0
 14 15  1  0
 15 16  2  0
 16 17  1  0
 17 18  1  0
 18 19  1  0
 19 20  2  0
 20 21  1  0
 21 22  2  0
 22 23  1  0
 23 24  1  0
 12 25  2  0
  8 26  1  0
 26 27  2  0
 27  3  1  0
 25  9  1  0
 17 13  1  0
 24 18  1  0
M  END
>  <Title>  (1236) 
idABVNgen8

$$$$

     RDKit          2D

 38 43  0  0  0  0  0  0  0  0999 V2000
    3.7500    1.2990    0.0000 C   0  0  0  0  0  0  0  0  0  0  0  0
    3.0000    0.0000    0.0000 O   0  0  0  0  0  0  0  0  0  0  0  0
    1.5000    0.0000    0.0000 C   0  0  0  0  0  0  0  0  0  0  0  0
    0.7500    1.2990    0.0000 C   0  0  0  0  0  0  0  0  0  0  0  0
   -0.7500    1.2990    0.0000 C   0  0  0  0  0  0  0  0  0  0  0  0
   -1.5000    0.0000    0.0000 C   0  0  0  0  0  0  0  0  0  0  0  0
   -3.0000    0.0000    0.0000 C   0  0  0  0  0  0  0  0  0  0  0  0
   -3.8817   -1.2135    0.0000 N   0  0  0  0  0  0  0  0  0  0  0  0
   -5.3083   -0.7500    0.0000 N   0  0  0  0  0  0  0  0  0  0  0  0
   -5.3083    0.7500    0.0000 N   0  0  0  0  0  0  0  0  0  0  0  0
   -3.8817    1.2135    0.0000 N   0  0  0  0  0  0  0  0  0  0  0  0
   -3.4182    2.6401    0.0000 C   0  0  0  0  0  0  0  0  0  0  0  0
   -1.9509    2.9520    0.0000 C   0  0  0  0  0  0  0  0  0  0  0  0
   -1.4874    4.3786    0.0000 C   0  0  0  0  0  0  0  0  0  0  0  0
   -2.4911    5.4933    0.0000 C   0  0  0  0  0  0  0  0  0  0  0  0
   -2.0276    6.9199    0.0000 C   0  0  0  0  0  0  0  0  0  0  0  0
   -0.5604    7.2317    0.0000 C   0  0  0  0  0  0  0  0  0  0  0  0
   -0.0968    8.6583    0.0000 C   0  0  0  0  0  0  0  0  0  0  0  0
   -1.1005    9.7730    0.0000 C   0  0  0  0  0  0  0  0  0  0  0  0
   -2.5677    9.4612    0.0000 C   0  0  0  0  0  0  0  0  0  0  0  0
   -3.0313    8.0346    0.0000 C   0  0  0  0  0  0  0  0  0  0  0  0
   -4.4985    7.7227    0.0000 N   0  0  0  0  0  0  0  0  0  0  0  0
   -4.9620    6.2961    0.0000 N   0  0  0  0  0  0  0  0  0  0  0  0
   -6.4292    5.9843    0.0000 N   0  0  0  0  0  0  0  0  0  0  0  0
   -7.4329    7.0990    0.0000 N   0  0  0  0  0  0  0  0  0  0  0  0
   -6.9694    8.5256    0.0000 N   0  0  0  0  0  0  0  0  0  0  0  0
   -5.5022    8.8374    0.0000 N   0  0  0  0  0  0  0  0  0  0  0  0
   -5.0387   10.2640    0.0000 C   0  0  0  0  0  0  0  0  0  0  0  0
   -6.0424   11.3787    0.0000 C   0  0  0  0  0  0  0  0  0  0  0  0
   -5.5788   12.8053    0.0000 C   0  0  0  0  0  0  0  0  0  0  0  0
   -4.1116   13.1172    0.0000 C   0  0  0  0  0  0  0  0  0  0  0  0
   -3.1079   12.0025    0.0000 C   0  0  0  0  0  0  0  0  0  0  0  0
   -3.5714   10.5759    0.0000 C   0  0  0  0  0  0  0  0  0  0  0  0
   -3.9583    5.1814    0.0000 C   0  0  0  0  0  0  0  0  0  0  0  0
   -4.4218    3.7548    0.0000 C   0  0  0  0  0  0  0  0  0  0  0  0
   -0.7500   -1.2990    0.0000 C   0  0  0  0  0  0  0  0  0  0  0  0
   -1.5000   -2.5981    0.0000 O   0  0  0  0  0  0  0  0  0  0  0  0
    0.7500   -1.2990    0.0000 N   0  0  0  0  0  0  0  0  0  0  0  0
  1  2  1  0
  2  3  1  0
  3  4  2  0
  4  5  1  0
  5  6  2  0
  6  7  1  0
  7  8  2  0
  8  9  1  0
  9 10  2  0
 10 11  1  0
 11 12  1  0
 12 13  2  0
 13 14  1  0
 14 15  2  0
 15 16  1  0
 16 17  2  0
 17 18  1  0
 18 19  2  0
 19 20  1  0
 20 21  2  0
 21 22  1  0
 22 23  1  0
 23 24  2  0
 24 25  1  0
 25 26  2  0
 26 27  1  0
 27 28  1  0
 28 29  2  0
 29 30  1  0
 30 31  2  0
 31 32  1  0
 32 33  2  0
 15 34  1  0
 34 35  2  0
  6 36  1  0
 36 37  2  0
 36 38  1  0
 38  3  1  0
 11  7  1  0
 35 12  1  0
 21 16  1  0
 27 22  1  0
 33 28  1  0
M  END
>  <Title>  (1237) 
idABVOgen8

$$$$

     RDKit          2D

 12 12  0  0  0  0  0  0  0  0999 V2000
    5.2500   -1.2990    0.0000 C   0  0  0  0  0  0  0  0  0  0  0  0
    3.7500   -1.2990    0.0000 C   0  0  0  0  0  0  0  0  0  0  0  0
    3.0000   -2.5981    0.0000 O   0  0  0  0  0  0  0  0  0  0  0  0
    3.0000    0.0000    0.0000 O   0  0  0  0  0  0  0  0  0  0  0  0
    1.5000    0.0000    0.0000 C   0  0  0  0  0  0  0  0  0  0  0  0
    0.7500   -1.2990    0.0000 C   0  0  0  0  0  0  0  0  0  0  0  0
   -0.7500   -1.2990    0.0000 C   0  0  0  0  0  0  0  0  0  0  0  0
   -1.5000    0.0000    0.0000 C   0  0  0  0  0  0  0  0  0  0  0  0
   -3.0000    0.0000    0.0000 F   0  0  0  0  0  0  0  0  0  0  0  0
   -0.7500    1.2990    0.0000 C   0  0  0  0  0  0  0  0  0  0  0  0
    0.7500    1.2990    0.0000 C   0  0  0  0  0  0  0  0  0  0  0  0
    1.5000    2.5981    0.0000 C   0  0  0  0  0  0  0  0  0  0  0  0
  1  2  1  0
  2  3  2  0
  2  4  1  0
  4  5  1  0
  5  6  2  0
  6  7  1  0
  7  8  2  0
  8  9  1  0
  8 10  1  0
 10 11  2  0
 11 12  1  0
 11  5  1  0
M  END
>  <Title>  (1238) 
idABVPgen8

$$$$

     RDKit          2D

 54 61  0  0  0  0  0  0  0  0999 V2000
    0.8311   10.2038    0.0000 C   0  0  0  0  0  0  0  0  0  0  0  0
   -0.5392    9.5937    0.0000 C   0  0  0  0  0  0  0  0  0  0  0  0
   -1.7527   10.4753    0.0000 C   0  0  0  0  0  0  0  0  0  0  0  0
   -3.1230    9.8652    0.0000 C   0  0  0  0  0  0  0  0  0  0  0  0
   -3.2798    8.3735    0.0000 C   0  0  0  0  0  0  0  0  0  0  0  0
   -4.6502    7.7634    0.0000 C   0  0  0  0  0  0  0  0  0  0  0  0
   -5.9492    8.5134    0.0000 N   0  0  0  0  0  0  0  0  0  0  0  0
   -7.0639    7.5097    0.0000 N   0  0  0  0  0  0  0  0  0  0  0  0
   -6.4538    6.1393    0.0000 N   0  0  0  0  0  0  0  0  0  0  0  0
   -4.9620    6.2961    0.0000 N   0  0  0  0  0  0  0  0  0  0  0  0
   -3.9583    5.1814    0.0000 C   0  0  0  0  0  0  0  0  0  0  0  0
   -2.4911    5.4933    0.0000 C   0  0  0  0  0  0  0  0  0  0  0  0
   -1.4874    4.3786    0.0000 C   0  0  0  0  0  0  0  0  0  0  0  0
   -1.9509    2.9520    0.0000 C   0  0  0  0  0  0  0  0  0  0  0  0
   -3.4182    2.6401    0.0000 C   0  0  0  0  0  0  0  0  0  0  0  0
   -4.4218    3.7548    0.0000 C   0  0  0  0  0  0  0  0  0  0  0  0
   -5.8891    3.4430    0.0000 C   0  0  0  0  0  0  0  0  0  0  0  0
   -6.8928    4.5577    0.0000 C   0  0  0  0  0  0  0  0  0  0  0  0
   -8.3600    4.2458    0.0000 C   0  0  0  0  0  0  0  0  0  0  0  0
   -8.8235    2.8192    0.0000 C   0  0  0  0  0  0  0  0  0  0  0  0
  -10.2907    2.5074    0.0000 C   0  0  0  0  0  0  0  0  0  0  0  0
  -10.7543    1.0808    0.0000 O   0  0  0  0  0  0  0  0  0  0  0  0
  -11.2944    3.6221    0.0000 N   0  0  0  0  0  0  0  0  0  0  0  0
  -12.7617    3.3102    0.0000 C   0  0  0  0  0  0  0  0  0  0  0  0
  -13.3718    1.9399    0.0000 N   0  0  0  0  0  0  0  0  0  0  0  0
  -14.8635    2.0967    0.0000 N   0  0  0  0  0  0  0  0  0  0  0  0
  -15.1754    3.5639    0.0000 N   0  0  0  0  0  0  0  0  0  0  0  0
  -13.8764    4.3139    0.0000 N   0  0  0  0  0  0  0  0  0  0  0  0
  -13.7196    5.8057    0.0000 C   0  0  0  0  0  0  0  0  0  0  0  0
  -12.3493    6.4158    0.0000 C   0  0  0  0  0  0  0  0  0  0  0  0
  -12.1925    7.9076    0.0000 C   0  0  0  0  0  0  0  0  0  0  0  0
  -13.4060    8.7893    0.0000 C   0  0  0  0  0  0  0  0  0  0  0  0
  -13.2492   10.2810    0.0000 C   0  0  0  0  0  0  0  0  0  0  0  0
  -11.8789   10.8911    0.0000 C   0  0  0  0  0  0  0  0  0  0  0  0
  -11.7221   12.3829    0.0000 C   0  0  0  0  0  0  0  0  0  0  0  0
  -12.9356   13.2646    0.0000 C   0  0  0  0  0  0  0  0  0  0  0  0
  -14.3059   12.6545    0.0000 C   0  0  0  0  0  0  0  0  0  0  0  0
  -14.4627   11.1627    0.0000 C   0  0  0  0  0  0  0  0  0  0  0  0
  -14.7763    8.1791    0.0000 C   0  0  0  0  0  0  0  0  0  0  0  0
  -14.9331    6.6874    0.0000 C   0  0  0  0  0  0  0  0  0  0  0  0
   -7.8198    1.7045    0.0000 C   0  0  0  0  0  0  0  0  0  0  0  0
   -6.3526    2.0164    0.0000 C   0  0  0  0  0  0  0  0  0  0  0  0
   -5.3489    0.9017    0.0000 C   0  0  0  0  0  0  0  0  0  0  0  0
   -5.8124   -0.5249    0.0000 C   0  0  0  0  0  0  0  0  0  0  0  0
   -4.8087   -1.6396    0.0000 C   0  0  0  0  0  0  0  0  0  0  0  0
   -3.3415   -1.3278    0.0000 C   0  0  0  0  0  0  0  0  0  0  0  0
   -2.3378   -2.4425    0.0000 C   0  0  0  0  0  0  0  0  0  0  0  0
   -0.8706   -2.1306    0.0000 O   0  0  0  0  0  0  0  0  0  0  0  0
   -2.8013   -3.8691    0.0000 N   0  0  0  0  0  0  0  0  0  0  0  0
   -1.7976   -4.9838    0.0000 O   0  0  0  0  0  0  0  0  0  0  0  0
   -2.8780    0.0988    0.0000 C   0  0  0  0  0  0  0  0  0  0  0  0
   -3.8817    1.2135    0.0000 C   0  0  0  0  0  0  0  0  0  0  0  0
   -2.0663    7.4918    0.0000 C   0  0  0  0  0  0  0  0  0  0  0  0
   -0.6960    8.1019    0.0000 C   0  0  0  0  0  0  0  0  0  0  0  0
  1  2  1  0
  2  3  2  0
  3  4  1  0
  4  5  2  0
  5  6  1  0
  6  7  2  0
  7  8  1  0
  8  9  2  0
  9 10  1  0
 10 11  1  0
 11 12  1  0
 12 13  1  0
 13 14  1  0
 14 15  1  0
 15 16  1  0
 16 17  1  0
 17 18  2  0
 18 19  1  0
 19 20  2  0
 20 21  1  0
 21 22  2  0
 21 23  1  0
 23 24  1  0
 24 25  2  0
 25 26  1  0
 26 27  2  0
 27 28  1  0
 28 29  1  0
 29 30  2  0
 30 31  1  0
 31 32  2  0
 32 33  1  0
 33 34  2  0
 34 35  1  0
 35 36  2  0
 36 37  1  0
 37 38  2  0
 32 39  1  0
 39 40  2  0
 20 41  1  0
 41 42  2  0
 42 43  1  0
 43 44  2  0
 44 45  1  0
 45 46  2  0
 46 47  1  0
 47 48  2  0
 47 49  1  0
 49 50  1  0
 46 51  1  0
 51 52  1  0
  5 53  1  0
 53 54  2  0
 54  2  1  0
 10  6  1  0
 16 11  1  0
 42 17  1  0
 52 43  1  0
 28 24  1  0
 40 29  1  0
 38 33  1  0
M  END
>  <Title>  (1239) 
idABVQgen8

$$$$

     RDKit          2D

 48 55  0  0  0  0  0  0  0  0999 V2000
   -5.4754   12.0038    0.0000 C   0  0  0  0  0  0  0  0  0  0  0  0
   -5.6321   10.5120    0.0000 O   0  0  0  0  0  0  0  0  0  0  0  0
   -4.4186    9.6303    0.0000 C   0  0  0  0  0  0  0  0  0  0  0  0
   -3.0483   10.2405    0.0000 C   0  0  0  0  0  0  0  0  0  0  0  0
   -1.8348    9.3588    0.0000 C   0  0  0  0  0  0  0  0  0  0  0  0
   -1.9916    7.8670    0.0000 C   0  0  0  0  0  0  0  0  0  0  0  0
   -0.7780    6.9853    0.0000 C   0  0  0  0  0  0  0  0  0  0  0  0
    0.6485    7.4488    0.0000 N   0  0  0  0  0  0  0  0  0  0  0  0
    1.5302    6.2353    0.0000 N   0  0  0  0  0  0  0  0  0  0  0  0
    0.6485    5.0218    0.0000 N   0  0  0  0  0  0  0  0  0  0  0  0
   -0.7780    5.4853    0.0000 N   0  0  0  0  0  0  0  0  0  0  0  0
   -1.9916    4.6036    0.0000 C   0  0  0  0  0  0  0  0  0  0  0  0
   -3.4182    5.0672    0.0000 N   0  0  0  0  0  0  0  0  0  0  0  0
   -4.2998    3.8536    0.0000 N   0  0  0  0  0  0  0  0  0  0  0  0
   -3.4182    2.6401    0.0000 N   0  0  0  0  0  0  0  0  0  0  0  0
   -1.9916    3.1036    0.0000 N   0  0  0  0  0  0  0  0  0  0  0  0
   -0.7780    2.2220    0.0000 C   0  0  0  0  0  0  0  0  0  0  0  0
   -0.9348    0.7302    0.0000 C   0  0  0  0  0  0  0  0  0  0  0  0
    0.2787   -0.1515    0.0000 C   0  0  0  0  0  0  0  0  0  0  0  0
    1.6490    0.4586    0.0000 C   0  0  0  0  0  0  0  0  0  0  0  0
    2.8625   -0.4231    0.0000 C   0  0  0  0  0  0  0  0  0  0  0  0
    4.2891    0.0404    0.0000 C   0  0  0  0  0  0  0  0  0  0  0  0
    5.1708   -1.1731    0.0000 C   0  0  0  0  0  0  0  0  0  0  0  0
    4.2891   -2.3866    0.0000 N   0  0  0  0  0  0  0  0  0  0  0  0
    2.8625   -1.9231    0.0000 N   0  0  0  0  0  0  0  0  0  0  0  0
    1.6490   -2.8048    0.0000 C   0  0  0  0  0  0  0  0  0  0  0  0
    0.2224   -2.3412    0.0000 N   0  0  0  0  0  0  0  0  0  0  0  0
   -0.6593   -3.5548    0.0000 N   0  0  0  0  0  0  0  0  0  0  0  0
    0.2224   -4.7683    0.0000 N   0  0  0  0  0  0  0  0  0  0  0  0
    1.6490   -4.3048    0.0000 N   0  0  0  0  0  0  0  0  0  0  0  0
    2.8625   -5.1864    0.0000 C   0  0  0  0  0  0  0  0  0  0  0  0
    2.7057   -6.6782    0.0000 C   0  0  0  0  0  0  0  0  0  0  0  0
    3.9193   -7.5599    0.0000 C   0  0  0  0  0  0  0  0  0  0  0  0
    5.2896   -6.9498    0.0000 C   0  0  0  0  0  0  0  0  0  0  0  0
    5.4464   -5.4580    0.0000 C   0  0  0  0  0  0  0  0  0  0  0  0
    4.2329   -4.5763    0.0000 C   0  0  0  0  0  0  0  0  0  0  0  0
    1.8058    1.9504    0.0000 C   0  0  0  0  0  0  0  0  0  0  0  0
    0.5923    2.8321    0.0000 C   0  0  0  0  0  0  0  0  0  0  0  0
    0.7491    4.3238    0.0000 C   0  0  0  0  0  0  0  0  0  0  0  0
    2.1194    4.9340    0.0000 C   0  0  0  0  0  0  0  0  0  0  0  0
    2.2762    6.4257    0.0000 C   0  0  0  0  0  0  0  0  0  0  0  0
    1.0627    7.3074    0.0000 C   0  0  0  0  0  0  0  0  0  0  0  0
    1.2194    8.7992    0.0000 C   0  0  0  0  0  0  0  0  0  0  0  0
   -0.3077    6.6973    0.0000 C   0  0  0  0  0  0  0  0  0  0  0  0
   -1.2718    7.8464    0.0000 O   0  0  0  0  0  0  0  0  0  0  0  0
   -0.4645    5.2055    0.0000 N   0  0  0  0  0  0  0  0  0  0  0  0
   -3.3619    7.2569    0.0000 C   0  0  0  0  0  0  0  0  0  0  0  0
   -4.5754    8.1386    0.0000 C   0  0  0  0  0  0  0  0  0  0  0  0
  1  2  1  0
  2  3  1  0
  3  4  2  0
  4  5  1  0
  5  6  2  0
  6  7  1  0
  7  8  2  0
  8  9  1  0
  9 10  2  0
 10 11  1  0
 11 12  1  0
 12 13  2  0
 13 14  1  0
 14 15  2  0
 15 16  1  0
 16 17  1  0
 17 18  2  0
 18 19  1  0
 19 20  2  0
 20 21  1  0
 21 22  2  0
 22 23  1  0
 23 24  2  0
 24 25  1  0
 25 26  1  0
 26 27  2  0
 27 28  1  0
 28 29  2  0
 29 30  1  0
 30 31  1  0
 31 32  2  0
 32 33  1  0
 33 34  2  0
 34 35  1  0
 35 36  2  0
 20 37  1  0
 37 38  2  0
 38 39  1  0
 39 40  2  0
 40 41  1  0
 41 42  2  0
 42 43  1  0
 42 44  1  0
 44 45  2  0
 44 46  1  0
  6 47  1  0
 47 48  2  0
 48  3  1  0
 11  7  1  0
 16 12  1  0
 38 17  1  0
 46 39  1  0
 25 21  1  0
 30 26  1  0
 36 31  1  0
M  END
>  <Title>  (1240) 
idABVRgen8

$$$$

     RDKit          2D

 50 56  0  0  0  0  0  0  0  0999 V2000
   -9.3037  -14.8714    0.0000 C   0  0  0  0  0  0  0  0  0  0  0  0
   -7.8548  -14.4831    0.0000 C   0  0  0  0  0  0  0  0  0  0  0  0
   -7.4666  -13.0342    0.0000 C   0  0  0  0  0  0  0  0  0  0  0  0
   -6.0177  -12.6460    0.0000 C   0  0  0  0  0  0  0  0  0  0  0  0
   -4.9570  -13.7067    0.0000 C   0  0  0  0  0  0  0  0  0  0  0  0
   -3.5081  -13.3185    0.0000 C   0  0  0  0  0  0  0  0  0  0  0  0
   -2.3424  -14.2624    0.0000 N   0  0  0  0  0  0  0  0  0  0  0  0
   -1.0844  -13.4455    0.0000 N   0  0  0  0  0  0  0  0  0  0  0  0
   -1.4726  -11.9966    0.0000 N   0  0  0  0  0  0  0  0  0  0  0  0
   -2.9706  -11.9181    0.0000 N   0  0  0  0  0  0  0  0  0  0  0  0
   -3.7876  -10.6601    0.0000 C   0  0  0  0  0  0  0  0  0  0  0  0
   -5.2855  -10.5816    0.0000 C   0  0  0  0  0  0  0  0  0  0  0  0
   -5.6737   -9.1327    0.0000 N   0  0  0  0  0  0  0  0  0  0  0  0
   -4.4157   -8.3157    0.0000 N   0  0  0  0  0  0  0  0  0  0  0  0
   -3.2500   -9.2597    0.0000 N   0  0  0  0  0  0  0  0  0  0  0  0
   -1.8011   -8.8715    0.0000 C   0  0  0  0  0  0  0  0  0  0  0  0
   -0.6354   -9.8155    0.0000 C   0  0  0  0  0  0  0  0  0  0  0  0
    0.6226   -8.9985    0.0000 C   0  0  0  0  0  0  0  0  0  0  0  0
    0.2344   -7.5496    0.0000 C   0  0  0  0  0  0  0  0  0  0  0  0
    1.1784   -6.3839    0.0000 C   0  0  0  0  0  0  0  0  0  0  0  0
    2.5487   -6.9940    0.0000 C   0  0  0  0  0  0  0  0  0  0  0  0
    4.0405   -6.8372    0.0000 C   0  0  0  0  0  0  0  0  0  0  0  0
    5.2540   -5.9555    0.0000 C   0  0  0  0  0  0  0  0  0  0  0  0
    5.8641   -4.5852    0.0000 N   0  0  0  0  0  0  0  0  0  0  0  0
    5.7073   -3.0934    0.0000 N   0  0  0  0  0  0  0  0  0  0  0  0
    4.8256   -1.8799    0.0000 C   0  0  0  0  0  0  0  0  0  0  0  0
    6.0392   -0.9982    0.0000 N   0  0  0  0  0  0  0  0  0  0  0  0
    5.8824    0.4936    0.0000 C   0  0  0  0  0  0  0  0  0  0  0  0
    7.0959    1.3752    0.0000 O   0  0  0  0  0  0  0  0  0  0  0  0
    4.5120    1.1037    0.0000 C   0  0  0  0  0  0  0  0  0  0  0  0
    3.2985    0.2220    0.0000 C   0  0  0  0  0  0  0  0  0  0  0  0
    3.4553   -1.2698    0.0000 C   0  0  0  0  0  0  0  0  0  0  0  0
    1.9635   -1.4266    0.0000 C   0  0  0  0  0  0  0  0  0  0  0  0
    2.4271    0.0000    0.0000 N   0  0  0  0  0  0  0  0  0  0  0  0
    1.9635    1.4266    0.0000 N   0  0  0  0  0  0  0  0  0  0  0  0
    0.7500    2.3083    0.0000 N   0  0  0  0  0  0  0  0  0  0  0  0
   -0.7500    2.3083    0.0000 N   0  0  0  0  0  0  0  0  0  0  0  0
   -1.9635    1.4266    0.0000 N   0  0  0  0  0  0  0  0  0  0  0  0
   -2.4271    0.0000    0.0000 N   0  0  0  0  0  0  0  0  0  0  0  0
   -1.9635   -1.4266    0.0000 N   0  0  0  0  0  0  0  0  0  0  0  0
   -0.7500   -2.3083    0.0000 C   0  0  0  0  0  0  0  0  0  0  0  0
    0.7500   -2.3083    0.0000 C   0  0  0  0  0  0  0  0  0  0  0  0
    0.1399   -3.6786    0.0000 C   0  0  0  0  0  0  0  0  0  0  0  0
    0.2967   -5.1704    0.0000 C   0  0  0  0  0  0  0  0  0  0  0  0
   -1.1037   -5.7079    0.0000 O   0  0  0  0  0  0  0  0  0  0  0  0
   -1.2636   -7.4711    0.0000 C   0  0  0  0  0  0  0  0  0  0  0  0
   -2.0805   -6.2131    0.0000 O   0  0  0  0  0  0  0  0  0  0  0  0
   -5.3453  -15.1556    0.0000 C   0  0  0  0  0  0  0  0  0  0  0  0
   -4.2846  -16.2162    0.0000 O   0  0  0  0  0  0  0  0  0  0  0  0
   -6.7942  -15.5438    0.0000 O   0  0  0  0  0  0  0  0  0  0  0  0
  1  2  1  0
  2  3  2  0
  3  4  1  0
  4  5  2  0
  5  6  1  0
  6  7  2  0
  7  8  1  0
  8  9  2  0
  9 10  1  0
 10 11  1  0
 11 12  2  0
 12 13  1  0
 13 14  2  0
 14 15  1  0
 15 16  1  0
 16 17  2  0
 17 18  1  0
 18 19  2  0
 19 20  1  0
 20 21  2  0
 21 22  1  0
 22 23  2  0
 23 24  1  0
 24 25  2  0
 25 26  1  0
 26 27  1  0
 27 28  1  0
 28 29  2  0
 28 30  1  0
 30 31  2  0
 31 32  1  0
 32 33  1  0
 33 34  2  0
 34 35  1  0
 35 36  2  0
 36 37  1  0
 37 38  2  0
 38 39  1  0
 39 40  2  0
 40 41  1  0
 41 42  2  0
 42 43  1  0
 43 44  1  0
 44 45  2  0
 19 46  1  0
 46 47  2  0
  5 48  1  0
 48 49  2  0
 48 50  1  0
 50  2  1  0
 10  6  1  0
 15 11  1  0
 46 16  1  0
 44 20  1  0
 32 26  1  0
 42 33  1  0
M  END
>  <Title>  (1241) 
idABVSgen8

$$$$

     RDKit          2D

 27 27  0  0  0  0  0  0  0  0999 V2000
    7.7222    0.0000    0.0000 C   0  0  0  0  0  0  0  0  0  0  0  0
    6.2222    0.0000    0.0000 C   0  0  0  0  0  0  0  0  0  0  0  0
    6.0414   -1.4891    0.0000 C   0  0  0  0  0  0  0  0  0  0  0  0
    5.5095   -2.8916    0.0000 C   0  0  0  0  0  0  0  0  0  0  0  0
    4.6574   -4.1261    0.0000 C   0  0  0  0  0  0  0  0  0  0  0  0
    3.5346   -5.1207    0.0000 C   0  0  0  0  0  0  0  0  0  0  0  0
    2.2064   -5.8178    0.0000 C   0  0  0  0  0  0  0  0  0  0  0  0
    0.7500   -6.1768    0.0000 C   0  0  0  0  0  0  0  0  0  0  0  0
   -0.7500   -6.1768    0.0000 C   0  0  0  0  0  0  0  0  0  0  0  0
   -2.2064   -5.8178    0.0000 C   0  0  0  0  0  0  0  0  0  0  0  0
   -3.5346   -5.1207    0.0000 C   0  0  0  0  0  0  0  0  0  0  0  0
   -4.6574   -4.1261    0.0000 C   0  0  0  0  0  0  0  0  0  0  0  0
   -5.5095   -2.8916    0.0000 C   0  0  0  0  0  0  0  0  0  0  0  0
   -6.0414   -1.4891    0.0000 C   0  0  0  0  0  0  0  0  0  0  0  0
   -6.2222    0.0000    0.0000 C   0  0  0  0  0  0  0  0  0  0  0  0
   -6.0414    1.4891    0.0000 C   0  0  0  0  0  0  0  0  0  0  0  0
   -5.5095    2.8916    0.0000 C   0  0  0  0  0  0  0  0  0  0  0  0
   -4.6574    4.1261    0.0000 C   0  0  0  0  0  0  0  0  0  0  0  0
   -3.5346    5.1207    0.0000 C   0  0  0  0  0  0  0  0  0  0  0  0
   -2.2064    5.8178    0.0000 C   0  0  0  0  0  0  0  0  0  0  0  0
   -0.7500    6.1768    0.0000 C   0  0  0  0  0  0  0  0  0  0  0  0
    0.7500    6.1768    0.0000 C   0  0  0  0  0  0  0  0  0  0  0  0
    2.2064    5.8178    0.0000 C   0  0  0  0  0  0  0  0  0  0  0  0
    3.5346    5.1207    0.0000 C   0  0  0  0  0  0  0  0  0  0  0  0
    4.6574    4.1261    0.0000 C   0  0  0  0  0  0  0  0  0  0  0  0
    5.5095    2.8916    0.0000 C   0  0  0  0  0  0  0  0  0  0  0  0
    6.0414    1.4891    0.0000 C   0  0  0  0  0  0  0  0  0  0  0  0
  1  2  1  0
  2  3  2  0
  3  4  1  0
  4  5  2  0
  5  6  1  0
  6  7  2  0
  7  8  1  0
  8  9  2  0
  9 10  1  0
 10 11  2  0
 11 12  1  0
 12 13  2  0
 13 14  1  0
 14 15  2  0
 15 16  1  0
 16 17  2  0
 17 18  1  0
 18 19  2  0
 19 20  1  0
 20 21  2  0
 21 22  1  0
 22 23  2  0
 23 24  1  0
 24 25  2  0
 25 26  1  0
 26 27  2  0
 27  2  1  0
M  END
>  <Title>  (1242) 
idABVTgen8

$$$$

     RDKit          2D

 14 14  0  0  0  0  0  0  0  0999 V2000
    4.3978    0.0000    0.0000 C   0  0  0  0  0  0  0  0  0  0  0  0
    2.8978    0.0000    0.0000 C   0  0  0  0  0  0  0  0  0  0  0  0
    2.5095   -1.4489    0.0000 N   0  0  0  0  0  0  0  0  0  0  0  0
    1.4489   -2.5095    0.0000 C   0  0  0  0  0  0  0  0  0  0  0  0
   -0.0000   -2.8978    0.0000 C   0  0  0  0  0  0  0  0  0  0  0  0
   -1.4489   -2.5095    0.0000 O   0  0  0  0  0  0  0  0  0  0  0  0
   -2.5095   -1.4489    0.0000 C   0  0  0  0  0  0  0  0  0  0  0  0
   -2.8978    0.0000    0.0000 C   0  0  0  0  0  0  0  0  0  0  0  0
   -2.5095    1.4489    0.0000 C   0  0  0  0  0  0  0  0  0  0  0  0
   -1.4489    2.5095    0.0000 C   0  0  0  0  0  0  0  0  0  0  0  0
    0.0000    2.8978    0.0000 C   0  0  0  0  0  0  0  0  0  0  0  0
    1.4489    2.5095    0.0000 C   0  0  0  0  0  0  0  0  0  0  0  0
    2.5095    1.4489    0.0000 C   0  0  0  0  0  0  0  0  0  0  0  0
    3.8086    2.1989    0.0000 O   0  0  0  0  0  0  0  0  0  0  0  0
  1  2  2  0
  2  3  1  0
  3  4  1  0
  4  5  1  0
  5  6  1  0
  6  7  1  0
  7  8  1  0
  8  9  2  0
  9 10  1  0
 10 11  2  0
 11 12  1  0
 12 13  2  0
 13 14  1  0
 13  2  1  0
M  END
>  <Title>  (1243) 
idABVUgen8

$$$$

     RDKit          2D

 13 13  0  0  0  0  0  0  0  0999 V2000
    3.9271    0.0000    0.0000 C   0  0  0  0  0  0  0  0  0  0  0  0
    2.4271    0.0000    0.0000 C   0  0  0  0  0  0  0  0  0  0  0  0
    1.9635   -1.4266    0.0000 C   0  0  0  0  0  0  0  0  0  0  0  0
    0.7500   -2.3083    0.0000 C   0  0  0  0  0  0  0  0  0  0  0  0
   -0.7500   -2.3083    0.0000 C   0  0  0  0  0  0  0  0  0  0  0  0
   -1.9635   -1.4266    0.0000 C   0  0  0  0  0  0  0  0  0  0  0  0
   -2.4271    0.0000    0.0000 C   0  0  0  0  0  0  0  0  0  0  0  0
   -3.9271    0.0000    0.0000 C   0  0  0  0  0  0  0  0  0  0  0  0
   -1.9635    1.4266    0.0000 C   0  0  0  0  0  0  0  0  0  0  0  0
   -3.1771    2.3083    0.0000 C   0  0  0  0  0  0  0  0  0  0  0  0
   -0.7500    2.3083    0.0000 C   0  0  0  0  0  0  0  0  0  0  0  0
    0.7500    2.3083    0.0000 C   0  0  0  0  0  0  0  0  0  0  0  0
    1.9635    1.4266    0.0000 C   0  0  0  0  0  0  0  0  0  0  0  0
  1  2  1  0
  2  3  2  0
  3  4  1  0
  4  5  2  0
  5  6  1  0
  6  7  2  0
  7  8  1  0
  7  9  1  0
  9 10  1  0
  9 11  2  0
 11 12  1  0
 12 13  2  0
 13  2  1  0
M  END
>  <Title>  (1244) 
idABVVgen8

$$$$

     RDKit          2D

 39 44  0  0  0  0  0  0  0  0999 V2000
    3.0000    0.0000    0.0000 C   0  0  0  0  0  0  0  0  0  0  0  0
    1.5000    0.0000    0.0000 C   0  0  0  0  0  0  0  0  0  0  0  0
    0.7500   -1.2990    0.0000 C   0  0  0  0  0  0  0  0  0  0  0  0
   -0.7500   -1.2990    0.0000 C   0  0  0  0  0  0  0  0  0  0  0  0
   -1.5000    0.0000    0.0000 C   0  0  0  0  0  0  0  0  0  0  0  0
   -3.0000    0.0000    0.0000 C   0  0  0  0  0  0  0  0  0  0  0  0
   -3.8817   -1.2135    0.0000 N   0  0  0  0  0  0  0  0  0  0  0  0
   -5.3083   -0.7500    0.0000 N   0  0  0  0  0  0  0  0  0  0  0  0
   -5.3083    0.7500    0.0000 N   0  0  0  0  0  0  0  0  0  0  0  0
   -3.8817    1.2135    0.0000 N   0  0  0  0  0  0  0  0  0  0  0  0
   -3.4182    2.6401    0.0000 C   0  0  0  0  0  0  0  0  0  0  0  0
   -1.9509    2.9520    0.0000 C   0  0  0  0  0  0  0  0  0  0  0  0
   -1.4874    4.3786    0.0000 C   0  0  0  0  0  0  0  0  0  0  0  0
   -2.4911    5.4933    0.0000 C   0  0  0  0  0  0  0  0  0  0  0  0
   -2.0276    6.9199    0.0000 C   0  0  0  0  0  0  0  0  0  0  0  0
   -2.9093    8.1334    0.0000 C   0  0  0  0  0  0  0  0  0  0  0  0
   -2.0276    9.3469    0.0000 N   0  0  0  0  0  0  0  0  0  0  0  0
   -0.6010    8.8834    0.0000 N   0  0  0  0  0  0  0  0  0  0  0  0
   -0.6010    7.3834    0.0000 N   0  0  0  0  0  0  0  0  0  0  0  0
    0.6125    6.5017    0.0000 C   0  0  0  0  0  0  0  0  0  0  0  0
    0.4557    5.0099    0.0000 C   0  0  0  0  0  0  0  0  0  0  0  0
    1.6693    4.1283    0.0000 C   0  0  0  0  0  0  0  0  0  0  0  0
    3.0396    4.7384    0.0000 C   0  0  0  0  0  0  0  0  0  0  0  0
    3.1964    6.2301    0.0000 C   0  0  0  0  0  0  0  0  0  0  0  0
    1.9829    7.1118    0.0000 C   0  0  0  0  0  0  0  0  0  0  0  0
   -3.9583    5.1814    0.0000 C   0  0  0  0  0  0  0  0  0  0  0  0
   -4.4218    3.7548    0.0000 C   0  0  0  0  0  0  0  0  0  0  0  0
   -5.8891    3.4430    0.0000 C   0  0  0  0  0  0  0  0  0  0  0  0
   -6.8928    4.5577    0.0000 C   0  0  0  0  0  0  0  0  0  0  0  0
   -8.3600    4.2458    0.0000 C   0  0  0  0  0  0  0  0  0  0  0  0
   -8.8235    2.8192    0.0000 C   0  0  0  0  0  0  0  0  0  0  0  0
  -10.2907    2.5074    0.0000 C   0  0  0  0  0  0  0  0  0  0  0  0
  -10.7543    1.0808    0.0000 O   0  0  0  0  0  0  0  0  0  0  0  0
  -11.2944    3.6221    0.0000 N   0  0  0  0  0  0  0  0  0  0  0  0
  -12.7617    3.3102    0.0000 O   0  0  0  0  0  0  0  0  0  0  0  0
   -7.8198    1.7045    0.0000 C   0  0  0  0  0  0  0  0  0  0  0  0
   -6.3526    2.0164    0.0000 C   0  0  0  0  0  0  0  0  0  0  0  0
   -0.7500    1.2990    0.0000 C   0  0  0  0  0  0  0  0  0  0  0  0
    0.7500    1.2990    0.0000 C   0  0  0  0  0  0  0  0  0  0  0  0
  1  2  1  0
  2  3  2  0
  3  4  1  0
  4  5  2  0
  5  6  1  0
  6  7  2  0
  7  8  1  0
  8  9  2  0
  9 10  1  0
 10 11  1  0
 11 12  2  0
 12 13  1  0
 13 14  2  0
 14 15  1  0
 15 16  2  0
 16 17  1  0
 17 18  2  0
 18 19  1  0
 19 20  1  0
 20 21  2  0
 21 22  1  0
 22 23  2  0
 23 24  1  0
 24 25  2  0
 14 26  1  0
 26 27  2  0
 27 28  1  0
 28 29  2  0
 29 30  1  0
 30 31  2  0
 31 32  1  0
 32 33  2  0
 32 34  1  0
 34 35  1  0
 31 36  1  0
 36 37  1  0
  5 38  1  0
 38 39  2  0
 39  2  1  0
 10  6  1  0
 27 11  1  0
 37 28  1  0
 19 15  1  0
 25 20  1  0
M  END
>  <Title>  (1245) 
idABVWgen8

$$$$

     RDKit          2D

 40 45  0  0  0  0  0  0  0  0999 V2000
    3.0000    0.0000    0.0000 C   0  0  0  0  0  0  0  0  0  0  0  0
    1.5000    0.0000    0.0000 C   0  0  0  0  0  0  0  0  0  0  0  0
    0.7500   -1.2990    0.0000 C   0  0  0  0  0  0  0  0  0  0  0  0
   -0.7500   -1.2990    0.0000 C   0  0  0  0  0  0  0  0  0  0  0  0
   -1.5000    0.0000    0.0000 C   0  0  0  0  0  0  0  0  0  0  0  0
   -3.0000    0.0000    0.0000 C   0  0  0  0  0  0  0  0  0  0  0  0
   -3.7500   -1.2990    0.0000 O   0  0  0  0  0  0  0  0  0  0  0  0
   -3.7500    1.2990    0.0000 N   0  0  0  0  0  0  0  0  0  0  0  0
   -5.2500    1.2990    0.0000 C   0  0  0  0  0  0  0  0  0  0  0  0
   -6.1317    0.0855    0.0000 N   0  0  0  0  0  0  0  0  0  0  0  0
   -7.5583    0.5490    0.0000 N   0  0  0  0  0  0  0  0  0  0  0  0
   -7.5583    2.0490    0.0000 N   0  0  0  0  0  0  0  0  0  0  0  0
   -6.1317    2.5126    0.0000 N   0  0  0  0  0  0  0  0  0  0  0  0
   -5.6682    3.9391    0.0000 C   0  0  0  0  0  0  0  0  0  0  0  0
   -4.2009    4.2510    0.0000 C   0  0  0  0  0  0  0  0  0  0  0  0
   -3.7374    5.6776    0.0000 C   0  0  0  0  0  0  0  0  0  0  0  0
   -4.7411    6.7923    0.0000 C   0  0  0  0  0  0  0  0  0  0  0  0
   -4.2776    8.2189    0.0000 C   0  0  0  0  0  0  0  0  0  0  0  0
   -5.1593    9.4324    0.0000 N   0  0  0  0  0  0  0  0  0  0  0  0
   -4.2776   10.6460    0.0000 N   0  0  0  0  0  0  0  0  0  0  0  0
   -2.8510   10.1824    0.0000 N   0  0  0  0  0  0  0  0  0  0  0  0
   -2.8510    8.6824    0.0000 N   0  0  0  0  0  0  0  0  0  0  0  0
   -1.6375    7.8008    0.0000 C   0  0  0  0  0  0  0  0  0  0  0  0
   -1.7943    6.3090    0.0000 C   0  0  0  0  0  0  0  0  0  0  0  0
   -0.5807    5.4273    0.0000 C   0  0  0  0  0  0  0  0  0  0  0  0
    0.7896    6.0374    0.0000 C   0  0  0  0  0  0  0  0  0  0  0  0
    0.9464    7.5292    0.0000 C   0  0  0  0  0  0  0  0  0  0  0  0
   -0.2671    8.4109    0.0000 C   0  0  0  0  0  0  0  0  0  0  0  0
   -6.2083    6.4805    0.0000 C   0  0  0  0  0  0  0  0  0  0  0  0
   -6.6718    5.0539    0.0000 C   0  0  0  0  0  0  0  0  0  0  0  0
   -8.1391    4.7420    0.0000 C   0  0  0  0  0  0  0  0  0  0  0  0
   -9.1428    5.8567    0.0000 C   0  0  0  0  0  0  0  0  0  0  0  0
  -10.6100    5.5448    0.0000 C   0  0  0  0  0  0  0  0  0  0  0  0
  -11.0735    4.1183    0.0000 C   0  0  0  0  0  0  0  0  0  0  0  0
  -12.5407    3.8064    0.0000 C   0  0  0  0  0  0  0  0  0  0  0  0
  -10.0698    3.0035    0.0000 C   0  0  0  0  0  0  0  0  0  0  0  0
  -10.5333    1.5770    0.0000 O   0  0  0  0  0  0  0  0  0  0  0  0
   -8.6026    3.3154    0.0000 N   0  0  0  0  0  0  0  0  0  0  0  0
   -0.7500    1.2990    0.0000 N   0  0  0  0  0  0  0  0  0  0  0  0
    0.7500    1.2990    0.0000 C   0  0  0  0  0  0  0  0  0  0  0  0
  1  2  1  0
  2  3  2  0
  3  4  1  0
  4  5  2  0
  5  6  1  0
  6  7  2  0
  6  8  1  0
  8  9  1  0
  9 10  2  0
 10 11  1  0
 11 12  2  0
 12 13  1  0
 13 14  1  0
 14 15  2  0
 15 16  1  0
 16 17  2  0
 17 18  1  0
 18 19  2  0
 19 20  1  0
 20 21  2  0
 21 22  1  0
 22 23  1  0
 23 24  2  0
 24 25  1  0
 25 26  2  0
 26 27  1  0
 27 28  2  0
 17 29  1  0
 29 30  2  0
 30 31  1  0
 31 32  2  0
 32 33  1  0
 33 34  2  0
 34 35  1  0
 34 36  1  0
 36 37  2  0
 36 38  1  0
  5 39  1  0
 39 40  1  0
 40  2  1  0
 13  9  1  0
 30 14  1  0
 38 31  1  0
 22 18  1  0
 28 23  1  0
M  END
>  <Title>  (1246) 
idABVXgen8

$$$$

     RDKit          2D

  4  3  0  0  0  0  0  0  0  0999 V2000
    0.0000    0.0000    0.0000 C   0  0  0  0  0  0  0  0  0  0  0  0
    1.2990    0.7500    0.0000 C   0  0  0  0  0  0  0  0  0  0  0  0
    2.5981   -0.0000    0.0000 C   0  0  0  0  0  0  0  0  0  0  0  0
    3.8971    0.7500    0.0000 O   0  0  0  0  0  0  0  0  0  0  0  0
  1  2  1  0
  2  3  1  0
  3  4  2  0
M  END
>  <Title>  (1247) 
idABVYgen8

$$$$

     RDKit          2D

 44 51  0  0  0  0  0  0  0  0999 V2000
   -5.6321   10.5120    0.0000 C   0  0  0  0  0  0  0  0  0  0  0  0
   -4.4186    9.6303    0.0000 C   0  0  0  0  0  0  0  0  0  0  0  0
   -4.5754    8.1386    0.0000 C   0  0  0  0  0  0  0  0  0  0  0  0
   -3.3619    7.2569    0.0000 C   0  0  0  0  0  0  0  0  0  0  0  0
   -1.9916    7.8670    0.0000 C   0  0  0  0  0  0  0  0  0  0  0  0
   -0.7780    6.9853    0.0000 C   0  0  0  0  0  0  0  0  0  0  0  0
    0.6485    7.4488    0.0000 N   0  0  0  0  0  0  0  0  0  0  0  0
    1.5302    6.2353    0.0000 N   0  0  0  0  0  0  0  0  0  0  0  0
    0.6485    5.0218    0.0000 N   0  0  0  0  0  0  0  0  0  0  0  0
   -0.7780    5.4853    0.0000 N   0  0  0  0  0  0  0  0  0  0  0  0
   -1.9916    4.6036    0.0000 C   0  0  0  0  0  0  0  0  0  0  0  0
   -3.4182    5.0672    0.0000 C   0  0  0  0  0  0  0  0  0  0  0  0
   -4.2998    3.8536    0.0000 N   0  0  0  0  0  0  0  0  0  0  0  0
   -3.4182    2.6401    0.0000 N   0  0  0  0  0  0  0  0  0  0  0  0
   -1.9916    3.1036    0.0000 N   0  0  0  0  0  0  0  0  0  0  0  0
   -0.7780    2.2220    0.0000 C   0  0  0  0  0  0  0  0  0  0  0  0
    0.6485    2.6855    0.0000 C   0  0  0  0  0  0  0  0  0  0  0  0
    1.5302    1.4720    0.0000 N   0  0  0  0  0  0  0  0  0  0  0  0
    0.6485    0.2584    0.0000 N   0  0  0  0  0  0  0  0  0  0  0  0
   -0.7780    0.7220    0.0000 N   0  0  0  0  0  0  0  0  0  0  0  0
   -1.9916   -0.1597    0.0000 C   0  0  0  0  0  0  0  0  0  0  0  0
   -3.3619    0.4504    0.0000 C   0  0  0  0  0  0  0  0  0  0  0  0
   -4.5754   -0.4313    0.0000 C   0  0  0  0  0  0  0  0  0  0  0  0
   -4.4186   -1.9231    0.0000 C   0  0  0  0  0  0  0  0  0  0  0  0
   -5.6321   -2.8048    0.0000 C   0  0  0  0  0  0  0  0  0  0  0  0
   -5.6321   -4.3048    0.0000 N   0  0  0  0  0  0  0  0  0  0  0  0
   -7.0587   -4.7683    0.0000 N   0  0  0  0  0  0  0  0  0  0  0  0
   -7.9404   -3.5548    0.0000 N   0  0  0  0  0  0  0  0  0  0  0  0
   -7.0587   -2.3412    0.0000 N   0  0  0  0  0  0  0  0  0  0  0  0
   -7.5223   -0.9146    0.0000 C   0  0  0  0  0  0  0  0  0  0  0  0
   -6.6406    0.2989    0.0000 N   0  0  0  0  0  0  0  0  0  0  0  0
   -7.5223    1.5124    0.0000 N   0  0  0  0  0  0  0  0  0  0  0  0
   -8.9488    1.0489    0.0000 N   0  0  0  0  0  0  0  0  0  0  0  0
   -8.9488   -0.4511    0.0000 N   0  0  0  0  0  0  0  0  0  0  0  0
  -10.1624   -1.3328    0.0000 C   0  0  0  0  0  0  0  0  0  0  0  0
  -10.0056   -2.8246    0.0000 C   0  0  0  0  0  0  0  0  0  0  0  0
  -11.2191   -3.7063    0.0000 C   0  0  0  0  0  0  0  0  0  0  0  0
  -12.5894   -3.0962    0.0000 C   0  0  0  0  0  0  0  0  0  0  0  0
  -12.7462   -1.6044    0.0000 C   0  0  0  0  0  0  0  0  0  0  0  0
  -11.5327   -0.7227    0.0000 C   0  0  0  0  0  0  0  0  0  0  0  0
   -3.0483   -2.5332    0.0000 C   0  0  0  0  0  0  0  0  0  0  0  0
   -1.8348   -1.6515    0.0000 C   0  0  0  0  0  0  0  0  0  0  0  0
   -1.8348    9.3588    0.0000 C   0  0  0  0  0  0  0  0  0  0  0  0
   -3.0483   10.2405    0.0000 C   0  0  0  0  0  0  0  0  0  0  0  0
  1  2  1  0
  2  3  2  0
  3  4  1  0
  4  5  2  0
  5  6  1  0
  6  7  2  0
  7  8  1  0
  8  9  2  0
  9 10  1  0
 10 11  1  0
 11 12  2  0
 12 13  1  0
 13 14  2  0
 14 15  1  0
 15 16  1  0
 16 17  2  0
 17 18  1  0
 18 19  2  0
 19 20  1  0
 20 21  1  0
 21 22  2  0
 22 23  1  0
 23 24  2  0
 24 25  1  0
 25 26  2  0
 26 27  1  0
 27 28  2  0
 28 29  1  0
 29 30  1  0
 30 31  2  0
 31 32  1  0
 32 33  2  0
 33 34  1  0
 34 35  1  0
 35 36  2  0
 36 37  1  0
 37 38  2  0
 38 39  1  0
 39 40  2  0
 24 41  1  0
 41 42  2  0
  5 43  1  0
 43 44  2  0
 44  2  1  0
 10  6  1  0
 15 11  1  0
 20 16  1  0
 42 21  1  0
 29 25  1  0
 34 30  1  0
 40 35  1  0
M  END
>  <Title>  (1248) 
idABVZgen8

$$$$

     RDKit          2D

 23 25  0  0  0  0  0  0  0  0999 V2000
    3.0000    0.0000    0.0000 C   0  0  0  0  0  0  0  0  0  0  0  0
    1.5000    0.0000    0.0000 C   0  0  0  0  0  0  0  0  0  0  0  0
    0.7500   -1.2990    0.0000 C   0  0  0  0  0  0  0  0  0  0  0  0
   -0.7500   -1.2990    0.0000 C   0  0  0  0  0  0  0  0  0  0  0  0
   -1.5000    0.0000    0.0000 C   0  0  0  0  0  0  0  0  0  0  0  0
   -3.0000    0.0000    0.0000 C   0  0  0  0  0  0  0  0  0  0  0  0
   -3.7500   -1.2990    0.0000 O   0  0  0  0  0  0  0  0  0  0  0  0
   -3.7500    1.2990    0.0000 N   0  0  0  0  0  0  0  0  0  0  0  0
   -5.2500    1.2990    0.0000 C   0  0  0  0  0  0  0  0  0  0  0  0
   -6.1317    0.0855    0.0000 N   0  0  0  0  0  0  0  0  0  0  0  0
   -7.5583    0.5490    0.0000 N   0  0  0  0  0  0  0  0  0  0  0  0
   -7.5583    2.0490    0.0000 N   0  0  0  0  0  0  0  0  0  0  0  0
   -6.1317    2.5126    0.0000 N   0  0  0  0  0  0  0  0  0  0  0  0
   -5.6682    3.9391    0.0000 C   0  0  0  0  0  0  0  0  0  0  0  0
   -4.2009    4.2510    0.0000 C   0  0  0  0  0  0  0  0  0  0  0  0
   -3.7374    5.6776    0.0000 C   0  0  0  0  0  0  0  0  0  0  0  0
   -4.7411    6.7923    0.0000 C   0  0  0  0  0  0  0  0  0  0  0  0
   -4.2776    8.2189    0.0000 C   0  0  0  0  0  0  0  0  0  0  0  0
   -6.2083    6.4805    0.0000 C   0  0  0  0  0  0  0  0  0  0  0  0
   -7.2120    7.5952    0.0000 O   0  0  0  0  0  0  0  0  0  0  0  0
   -6.6718    5.0539    0.0000 N   0  0  0  0  0  0  0  0  0  0  0  0
   -0.7500    1.2990    0.0000 C   0  0  0  0  0  0  0  0  0  0  0  0
    0.7500    1.2990    0.0000 C   0  0  0  0  0  0  0  0  0  0  0  0
  1  2  1  0
  2  3  2  0
  3  4  1  0
  4  5  2  0
  5  6  1  0
  6  7  2  0
  6  8  1  0
  8  9  1  0
  9 10  2  0
 10 11  1  0
 11 12  2  0
 12 13  1  0
 13 14  1  0
 14 15  2  0
 15 16  1  0
 16 17  2  0
 17 18  1  0
 17 19  1  0
 19 20  2  0
 19 21  1  0
  5 22  1  0
 22 23  1  0
 23  2  1  0
 13  9  1  0
 21 14  1  0
M  END
>  <Title>  (1249) 
idABWAgen8

$$$$

     RDKit          2D

 43 49  0  0  0  0  0  0  0  0999 V2000
    3.0000    0.0000    0.0000 C   0  0  0  0  0  0  0  0  0  0  0  0
    1.5000    0.0000    0.0000 C   0  0  0  0  0  0  0  0  0  0  0  0
    0.7500    1.2990    0.0000 C   0  0  0  0  0  0  0  0  0  0  0  0
   -0.7500    1.2990    0.0000 C   0  0  0  0  0  0  0  0  0  0  0  0
   -1.5000    0.0000    0.0000 C   0  0  0  0  0  0  0  0  0  0  0  0
   -3.0000    0.0000    0.0000 C   0  0  0  0  0  0  0  0  0  0  0  0
   -3.8817   -1.2135    0.0000 N   0  0  0  0  0  0  0  0  0  0  0  0
   -5.3083   -0.7500    0.0000 N   0  0  0  0  0  0  0  0  0  0  0  0
   -5.3083    0.7500    0.0000 N   0  0  0  0  0  0  0  0  0  0  0  0
   -3.8817    1.2135    0.0000 N   0  0  0  0  0  0  0  0  0  0  0  0
   -3.4182    2.6401    0.0000 C   0  0  0  0  0  0  0  0  0  0  0  0
   -1.9509    2.9520    0.0000 C   0  0  0  0  0  0  0  0  0  0  0  0
   -1.4874    4.3786    0.0000 C   0  0  0  0  0  0  0  0  0  0  0  0
   -2.4911    5.4933    0.0000 C   0  0  0  0  0  0  0  0  0  0  0  0
   -2.0276    6.9199    0.0000 C   0  0  0  0  0  0  0  0  0  0  0  0
   -2.9093    8.1334    0.0000 C   0  0  0  0  0  0  0  0  0  0  0  0
   -2.0276    9.3469    0.0000 N   0  0  0  0  0  0  0  0  0  0  0  0
   -0.6010    8.8834    0.0000 N   0  0  0  0  0  0  0  0  0  0  0  0
   -0.6010    7.3834    0.0000 N   0  0  0  0  0  0  0  0  0  0  0  0
    0.6125    6.5017    0.0000 C   0  0  0  0  0  0  0  0  0  0  0  0
    0.4557    5.0099    0.0000 C   0  0  0  0  0  0  0  0  0  0  0  0
    1.6693    4.1283    0.0000 C   0  0  0  0  0  0  0  0  0  0  0  0
    3.0396    4.7384    0.0000 C   0  0  0  0  0  0  0  0  0  0  0  0
    3.1964    6.2301    0.0000 C   0  0  0  0  0  0  0  0  0  0  0  0
    1.9829    7.1118    0.0000 C   0  0  0  0  0  0  0  0  0  0  0  0
    2.1396    8.6036    0.0000 C   0  0  0  0  0  0  0  0  0  0  0  0
    0.9261    9.4853    0.0000 C   0  0  0  0  0  0  0  0  0  0  0  0
    1.0829   10.9771    0.0000 N   0  0  0  0  0  0  0  0  0  0  0  0
    2.4532   11.5872    0.0000 N   0  0  0  0  0  0  0  0  0  0  0  0
    3.6668   10.7055    0.0000 N   0  0  0  0  0  0  0  0  0  0  0  0
    3.5100    9.2137    0.0000 C   0  0  0  0  0  0  0  0  0  0  0  0
    4.7235    8.3320    0.0000 C   0  0  0  0  0  0  0  0  0  0  0  0
    6.0938    8.9421    0.0000 C   0  0  0  0  0  0  0  0  0  0  0  0
    7.3073    8.0605    0.0000 C   0  0  0  0  0  0  0  0  0  0  0  0
    7.1505    6.5687    0.0000 C   0  0  0  0  0  0  0  0  0  0  0  0
    5.7802    5.9586    0.0000 C   0  0  0  0  0  0  0  0  0  0  0  0
    4.5667    6.8402    0.0000 C   0  0  0  0  0  0  0  0  0  0  0  0
   -3.9583    5.1814    0.0000 C   0  0  0  0  0  0  0  0  0  0  0  0
   -4.9620    6.2961    0.0000 O   0  0  0  0  0  0  0  0  0  0  0  0
   -4.4218    3.7548    0.0000 N   0  0  0  0  0  0  0  0  0  0  0  0
   -0.7500   -1.2990    0.0000 C   0  0  0  0  0  0  0  0  0  0  0  0
   -1.5000   -2.5981    0.0000 O   0  0  0  0  0  0  0  0  0  0  0  0
    0.7500   -1.2990    0.0000 N   0  0  0  0  0  0  0  0  0  0  0  0
  1  2  1  0
  2  3  2  0
  3  4  1  0
  4  5  2  0
  5  6  1  0
  6  7  2  0
  7  8  1  0
  8  9  2  0
  9 10  1  0
 10 11  1  0
 11 12  2  0
 12 13  1  0
 13 14  2  0
 14 15  1  0
 15 16  2  0
 16 17  1  0
 17 18  2  0
 18 19  1  0
 19 20  1  0
 20 21  1  0
 21 22  1  0
 22 23  1  0
 23 24  1  0
 24 25  1  0
 25 26  1  0
 26 27  2  0
 27 28  1  0
 28 29  2  0
 29 30  1  0
 30 31  2  0
 31 32  1  0
 32 33  2  0
 33 34  1  0
 34 35  2  0
 35 36  1  0
 36 37  2  0
 14 38  1  0
 38 39  2  0
 38 40  1  0
  5 41  1  0
 41 42  2  0
 41 43  1  0
 43  2  1  0
 10  6  1  0
 40 11  1  0
 19 15  1  0
 25 20  1  0
 31 26  1  0
 37 32  1  0
M  END
>  <Title>  (1250) 
idABWBgen8

$$$$

     RDKit          2D

 42 47  0  0  0  0  0  0  0  0999 V2000
    4.2098   -1.2990    0.0000 C   0  0  0  0  0  0  0  0  0  0  0  0
    3.4598   -0.0000    0.0000 O   0  0  0  0  0  0  0  0  0  0  0  0
    1.9598    0.0000    0.0000 C   0  0  0  0  0  0  0  0  0  0  0  0
    1.3858   -1.3858    0.0000 C   0  0  0  0  0  0  0  0  0  0  0  0
   -0.0000   -1.9598    0.0000 C   0  0  0  0  0  0  0  0  0  0  0  0
   -1.3858   -1.3858    0.0000 C   0  0  0  0  0  0  0  0  0  0  0  0
   -1.9598    0.0000    0.0000 C   0  0  0  0  0  0  0  0  0  0  0  0
   -1.3858    1.3858    0.0000 C   0  0  0  0  0  0  0  0  0  0  0  0
   -2.4465    2.4465    0.0000 N   0  0  0  0  0  0  0  0  0  0  0  0
   -2.0583    3.8954    0.0000 N   0  0  0  0  0  0  0  0  0  0  0  0
   -3.1189    4.9560    0.0000 N   0  0  0  0  0  0  0  0  0  0  0  0
   -4.5678    4.5678    0.0000 N   0  0  0  0  0  0  0  0  0  0  0  0
   -4.9560    3.1189    0.0000 N   0  0  0  0  0  0  0  0  0  0  0  0
   -3.8954    2.0583    0.0000 N   0  0  0  0  0  0  0  0  0  0  0  0
   -4.2836    0.6094    0.0000 C   0  0  0  0  0  0  0  0  0  0  0  0
   -3.3396   -0.5564    0.0000 C   0  0  0  0  0  0  0  0  0  0  0  0
   -4.1566   -1.8144    0.0000 C   0  0  0  0  0  0  0  0  0  0  0  0
   -5.6055   -1.4261    0.0000 C   0  0  0  0  0  0  0  0  0  0  0  0
   -6.7712   -2.3701    0.0000 C   0  0  0  0  0  0  0  0  0  0  0  0
   -8.1716   -1.8326    0.0000 N   0  0  0  0  0  0  0  0  0  0  0  0
   -8.4062   -0.3510    0.0000 C   0  0  0  0  0  0  0  0  0  0  0  0
   -9.8066    0.1865    0.0000 N   0  0  0  0  0  0  0  0  0  0  0  0
  -10.9723   -0.7575    0.0000 N   0  0  0  0  0  0  0  0  0  0  0  0
  -10.7376   -2.2390    0.0000 N   0  0  0  0  0  0  0  0  0  0  0  0
   -9.3373   -2.7765    0.0000 N   0  0  0  0  0  0  0  0  0  0  0  0
   -9.1026   -4.2581    0.0000 C   0  0  0  0  0  0  0  0  0  0  0  0
   -7.7661   -4.9391    0.0000 C   0  0  0  0  0  0  0  0  0  0  0  0
   -8.0008   -6.4206    0.0000 C   0  0  0  0  0  0  0  0  0  0  0  0
   -9.4823   -6.6552    0.0000 C   0  0  0  0  0  0  0  0  0  0  0  0
  -10.1633   -7.9918    0.0000 C   0  0  0  0  0  0  0  0  0  0  0  0
  -11.6612   -8.0703    0.0000 C   0  0  0  0  0  0  0  0  0  0  0  0
  -12.3422   -9.4068    0.0000 N   0  0  0  0  0  0  0  0  0  0  0  0
  -11.5253  -10.6648    0.0000 N   0  0  0  0  0  0  0  0  0  0  0  0
  -10.0273  -10.5863    0.0000 N   0  0  0  0  0  0  0  0  0  0  0  0
   -9.3463   -9.2498    0.0000 C   0  0  0  0  0  0  0  0  0  0  0  0
  -10.1633   -5.3187    0.0000 C   0  0  0  0  0  0  0  0  0  0  0  0
  -11.6448   -5.0841    0.0000 O   0  0  0  0  0  0  0  0  0  0  0  0
   -5.6840    0.0718    0.0000 C   0  0  0  0  0  0  0  0  0  0  0  0
   -6.9420    0.8888    0.0000 O   0  0  0  0  0  0  0  0  0  0  0  0
    0.0000    1.9598    0.0000 N   0  0  0  0  0  0  0  0  0  0  0  0
    1.3858    1.3858    0.0000 C   0  0  0  0  0  0  0  0  0  0  0  0
    2.4465    2.4465    0.0000 O   0  0  0  0  0  0  0  0  0  0  0  0
  1  2  1  0
  2  3  1  0
  3  4  2  0
  4  5  1  0
  5  6  2  0
  6  7  1  0
  7  8  2  0
  8  9  1  0
  9 10  1  0
 10 11  2  0
 11 12  1  0
 12 13  2  0
 13 14  1  0
 14 15  1  0
 15 16  2  0
 16 17  1  0
 17 18  2  0
 18 19  1  0
 19 20  1  0
 20 21  1  0
 21 22  2  0
 22 23  1  0
 23 24  2  0
 24 25  1  0
 25 26  1  0
 26 27  2  0
 27 28  1  0
 28 29  2  0
 29 30  1  0
 30 31  2  0
 31 32  1  0
 32 33  2  0
 33 34  1  0
 34 35  2  0
 29 36  1  0
 36 37  2  0
 18 38  1  0
 38 39  2  0
  8 40  1  0
 40 41  1  0
 41 42  2  0
 41  3  1  0
 14  9  1  0
 38 15  1  0
 25 20  1  0
 36 26  1  0
 35 30  1  0
M  END
>  <Title>  (1251) 
idABWCgen8

$$$$

     RDKit          2D

 22 22  0  0  0  0  0  0  0  0999 V2000
    6.0567    0.0000    0.0000 C   0  0  0  0  0  0  0  0  0  0  0  0
    4.5567    0.0000    0.0000 C   0  0  0  0  0  0  0  0  0  0  0  0
    4.3098    1.4795    0.0000 C   0  0  0  0  0  0  0  0  0  0  0  0
    3.5958    2.7988    0.0000 C   0  0  0  0  0  0  0  0  0  0  0  0
    2.4923    3.8147    0.0000 C   0  0  0  0  0  0  0  0  0  0  0  0
    1.1186    4.4172    0.0000 C   0  0  0  0  0  0  0  0  0  0  0  0
   -0.3763    4.5411    0.0000 C   0  0  0  0  0  0  0  0  0  0  0  0
   -1.8304    4.1729    0.0000 C   0  0  0  0  0  0  0  0  0  0  0  0
   -3.0861    3.3524    0.0000 C   0  0  0  0  0  0  0  0  0  0  0  0
   -4.0075    2.1687    0.0000 C   0  0  0  0  0  0  0  0  0  0  0  0
   -4.4945    0.7500    0.0000 C   0  0  0  0  0  0  0  0  0  0  0  0
   -4.4945   -0.7500    0.0000 C   0  0  0  0  0  0  0  0  0  0  0  0
   -4.0075   -2.1687    0.0000 C   0  0  0  0  0  0  0  0  0  0  0  0
   -3.0861   -3.3524    0.0000 C   0  0  0  0  0  0  0  0  0  0  0  0
   -1.8304   -4.1729    0.0000 C   0  0  0  0  0  0  0  0  0  0  0  0
   -0.3763   -4.5411    0.0000 C   0  0  0  0  0  0  0  0  0  0  0  0
    1.1186   -4.4172    0.0000 C   0  0  0  0  0  0  0  0  0  0  0  0
    2.4923   -3.8147    0.0000 C   0  0  0  0  0  0  0  0  0  0  0  0
    3.3127   -5.0704    0.0000 C   0  0  0  0  0  0  0  0  0  0  0  0
    3.5958   -2.7988    0.0000 C   0  0  0  0  0  0  0  0  0  0  0  0
    4.7795   -3.7201    0.0000 O   0  0  0  0  0  0  0  0  0  0  0  0
    4.3098   -1.4795    0.0000 N   0  0  0  0  0  0  0  0  0  0  0  0
  1  2  1  0
  2  3  2  0
  3  4  1  0
  4  5  2  0
  5  6  1  0
  6  7  2  0
  7  8  1  0
  8  9  2  0
  9 10  1  0
 10 11  2  0
 11 12  1  0
 12 13  1  0
 13 14  1  0
 14 15  1  0
 15 16  2  0
 16 17  1  0
 17 18  2  0
 18 19  1  0
 18 20  1  0
 20 21  2  0
 20 22  1  0
 22  2  1  0
M  END
>  <Title>  (1252) 
idABWDgen8

$$$$

     RDKit          2D

 25 25  0  0  0  0  0  0  0  0999 V2000
    7.5200   -1.2990    0.0000 C   0  0  0  0  0  0  0  0  0  0  0  0
    6.7700    0.0000    0.0000 O   0  0  0  0  0  0  0  0  0  0  0  0
    5.2700    0.0000    0.0000 C   0  0  0  0  0  0  0  0  0  0  0  0
    5.0565   -1.4847    0.0000 C   0  0  0  0  0  0  0  0  0  0  0  0
    4.4334   -2.8492    0.0000 C   0  0  0  0  0  0  0  0  0  0  0  0
    3.4511   -3.9828    0.0000 C   0  0  0  0  0  0  0  0  0  0  0  0
    2.1892   -4.7938    0.0000 C   0  0  0  0  0  0  0  0  0  0  0  0
    0.7500   -5.2164    0.0000 C   0  0  0  0  0  0  0  0  0  0  0  0
   -0.7500   -5.2164    0.0000 C   0  0  0  0  0  0  0  0  0  0  0  0
   -2.1892   -4.7938    0.0000 C   0  0  0  0  0  0  0  0  0  0  0  0
   -3.4511   -3.9828    0.0000 C   0  0  0  0  0  0  0  0  0  0  0  0
   -4.4334   -2.8492    0.0000 C   0  0  0  0  0  0  0  0  0  0  0  0
   -5.0565   -1.4847    0.0000 C   0  0  0  0  0  0  0  0  0  0  0  0
   -5.2700    0.0000    0.0000 C   0  0  0  0  0  0  0  0  0  0  0  0
   -5.0565    1.4847    0.0000 C   0  0  0  0  0  0  0  0  0  0  0  0
   -4.4334    2.8492    0.0000 C   0  0  0  0  0  0  0  0  0  0  0  0
   -3.4511    3.9828    0.0000 C   0  0  0  0  0  0  0  0  0  0  0  0
   -2.1892    4.7938    0.0000 C   0  0  0  0  0  0  0  0  0  0  0  0
   -0.7500    5.2164    0.0000 C   0  0  0  0  0  0  0  0  0  0  0  0
    0.7500    5.2164    0.0000 C   0  0  0  0  0  0  0  0  0  0  0  0
    2.1892    4.7938    0.0000 C   0  0  0  0  0  0  0  0  0  0  0  0
    3.4511    3.9828    0.0000 C   0  0  0  0  0  0  0  0  0  0  0  0
    4.4334    2.8492    0.0000 C   0  0  0  0  0  0  0  0  0  0  0  0
    5.0565    1.4847    0.0000 C   0  0  0  0  0  0  0  0  0  0  0  0
    6.4958    1.9073    0.0000 O   0  0  0  0  0  0  0  0  0  0  0  0
  1  2  1  0
  2  3  1  0
  3  4  2  0
  4  5  1  0
  5  6  2  0
  6  7  1  0
  7  8  2  0
  8  9  1  0
  9 10  2  0
 10 11  1  0
 11 12  2  0
 12 13  1  0
 13 14  2  0
 14 15  1  0
 15 16  2  0
 16 17  1  0
 17 18  2  0
 18 19  1  0
 19 20  2  0
 20 21  1  0
 21 22  2  0
 22 23  1  0
 23 24  2  0
 24 25  1  0
 24  3  1  0
M  END
>  <Title>  (1253) 
idABWEgen8

$$$$

     RDKit          2D

 30 34  0  0  0  0  0  0  0  0999 V2000
    3.0000    0.0000    0.0000 C   0  0  0  0  0  0  0  0  0  0  0  0
    1.5000    0.0000    0.0000 C   0  0  0  0  0  0  0  0  0  0  0  0
    0.7500   -1.2990    0.0000 C   0  0  0  0  0  0  0  0  0  0  0  0
   -0.7500   -1.2990    0.0000 C   0  0  0  0  0  0  0  0  0  0  0  0
   -1.5000    0.0000    0.0000 C   0  0  0  0  0  0  0  0  0  0  0  0
   -3.0000    0.0000    0.0000 N   0  0  0  0  0  0  0  0  0  0  0  0
   -3.7500    1.2990    0.0000 N   0  0  0  0  0  0  0  0  0  0  0  0
   -5.2500    1.2990    0.0000 N   0  0  0  0  0  0  0  0  0  0  0  0
   -6.0000    0.0000    0.0000 N   0  0  0  0  0  0  0  0  0  0  0  0
   -5.2500   -1.2990    0.0000 N   0  0  0  0  0  0  0  0  0  0  0  0
   -3.7500   -1.2990    0.0000 N   0  0  0  0  0  0  0  0  0  0  0  0
   -3.0000   -2.5981    0.0000 C   0  0  0  0  0  0  0  0  0  0  0  0
   -3.7500   -3.8971    0.0000 C   0  0  0  0  0  0  0  0  0  0  0  0
   -3.0000   -5.1962    0.0000 C   0  0  0  0  0  0  0  0  0  0  0  0
   -1.5000   -5.1962    0.0000 C   0  0  0  0  0  0  0  0  0  0  0  0
   -0.7500   -6.4952    0.0000 C   0  0  0  0  0  0  0  0  0  0  0  0
    0.7418   -6.6520    0.0000 C   0  0  0  0  0  0  0  0  0  0  0  0
    1.0537   -8.1192    0.0000 C   0  0  0  0  0  0  0  0  0  0  0  0
   -0.2454   -8.8692    0.0000 C   0  0  0  0  0  0  0  0  0  0  0  0
   -1.3601   -7.8655    0.0000 N   0  0  0  0  0  0  0  0  0  0  0  0
   -2.8273   -8.1774    0.0000 C   0  0  0  0  0  0  0  0  0  0  0  0
   -3.8310   -7.0627    0.0000 C   0  0  0  0  0  0  0  0  0  0  0  0
   -5.2982   -7.3745    0.0000 C   0  0  0  0  0  0  0  0  0  0  0  0
   -5.7618   -8.8011    0.0000 C   0  0  0  0  0  0  0  0  0  0  0  0
   -4.7581   -9.9158    0.0000 C   0  0  0  0  0  0  0  0  0  0  0  0
   -3.2909   -9.6040    0.0000 C   0  0  0  0  0  0  0  0  0  0  0  0
   -0.7500   -3.8971    0.0000 C   0  0  0  0  0  0  0  0  0  0  0  0
   -1.5000   -2.5981    0.0000 C   0  0  0  0  0  0  0  0  0  0  0  0
   -0.7500    1.2990    0.0000 C   0  0  0  0  0  0  0  0  0  0  0  0
    0.7500    1.2990    0.0000 C   0  0  0  0  0  0  0  0  0  0  0  0
  1  2  1  0
  2  3  2  0
  3  4  1  0
  4  5  2  0
  5  6  1  0
  6  7  1  0
  7  8  2  0
  8  9  1  0
  9 10  2  0
 10 11  1  0
 11 12  1  0
 12 13  2  0
 13 14  1  0
 14 15  2  0
 15 16  1  0
 16 17  2  0
 17 18  1  0
 18 19  2  0
 19 20  1  0
 20 21  1  0
 21 22  2  0
 22 23  1  0
 23 24  2  0
 24 25  1  0
 25 26  2  0
 15 27  1  0
 27 28  2  0
  5 29  1  0
 29 30  2  0
 30  2  1  0
 11  6  1  0
 28 12  1  0
 20 16  1  0
 26 21  1  0
M  END
>  <Title>  (1254) 
idABWFgen8

$$$$

     RDKit          2D

 31 34  0  0  0  0  0  0  0  0999 V2000
    3.7500   -1.2990    0.0000 C   0  0  0  0  0  0  0  0  0  0  0  0
    3.0000    0.0000    0.0000 O   0  0  0  0  0  0  0  0  0  0  0  0
    1.5000    0.0000    0.0000 C   0  0  0  0  0  0  0  0  0  0  0  0
    0.7500   -1.2990    0.0000 C   0  0  0  0  0  0  0  0  0  0  0  0
   -0.7500   -1.2990    0.0000 C   0  0  0  0  0  0  0  0  0  0  0  0
   -1.5000    0.0000    0.0000 C   0  0  0  0  0  0  0  0  0  0  0  0
   -3.0000    0.0000    0.0000 C   0  0  0  0  0  0  0  0  0  0  0  0
   -3.8817   -1.2135    0.0000 N   0  0  0  0  0  0  0  0  0  0  0  0
   -5.3083   -0.7500    0.0000 N   0  0  0  0  0  0  0  0  0  0  0  0
   -5.3083    0.7500    0.0000 N   0  0  0  0  0  0  0  0  0  0  0  0
   -3.8817    1.2135    0.0000 N   0  0  0  0  0  0  0  0  0  0  0  0
   -3.4182    2.6401    0.0000 C   0  0  0  0  0  0  0  0  0  0  0  0
   -4.2998    3.8536    0.0000 C   0  0  0  0  0  0  0  0  0  0  0  0
   -3.4182    5.0672    0.0000 C   0  0  0  0  0  0  0  0  0  0  0  0
   -1.9916    4.6036    0.0000 C   0  0  0  0  0  0  0  0  0  0  0  0
   -0.7780    5.4853    0.0000 C   0  0  0  0  0  0  0  0  0  0  0  0
    0.5923    4.8752    0.0000 C   0  0  0  0  0  0  0  0  0  0  0  0
    1.8058    5.7569    0.0000 C   0  0  0  0  0  0  0  0  0  0  0  0
    1.6490    7.2487    0.0000 C   0  0  0  0  0  0  0  0  0  0  0  0
    2.8625    8.1303    0.0000 C   0  0  0  0  0  0  0  0  0  0  0  0
    2.7057    9.6221    0.0000 O   0  0  0  0  0  0  0  0  0  0  0  0
    4.2329    7.5202    0.0000 N   0  0  0  0  0  0  0  0  0  0  0  0
    5.4464    8.4019    0.0000 O   0  0  0  0  0  0  0  0  0  0  0  0
    0.2787    7.8588    0.0000 N   0  0  0  0  0  0  0  0  0  0  0  0
   -0.9348    6.9771    0.0000 C   0  0  0  0  0  0  0  0  0  0  0  0
   -2.3052    7.5872    0.0000 O   0  0  0  0  0  0  0  0  0  0  0  0
   -1.9916    3.1036    0.0000 C   0  0  0  0  0  0  0  0  0  0  0  0
   -0.7780    2.2220    0.0000 O   0  0  0  0  0  0  0  0  0  0  0  0
   -0.7500    1.2990    0.0000 N   0  0  0  0  0  0  0  0  0  0  0  0
    0.7500    1.2990    0.0000 C   0  0  0  0  0  0  0  0  0  0  0  0
    1.5000    2.5981    0.0000 O   0  0  0  0  0  0  0  0  0  0  0  0
  1  2  1  0
  2  3  1  0
  3  4  2  0
  4  5  1  0
  5  6  2  0
  6  7  1  0
  7  8  2  0
  8  9  1  0
  9 10  2  0
 10 11  1  0
 11 12  1  0
 12 13  2  0
 13 14  1  0
 14 15  2  0
 15 16  1  0
 16 17  2  0
 17 18  1  0
 18 19  2  0
 19 20  1  0
 20 21  2  0
 20 22  1  0
 22 23  1  0
 19 24  1  0
 24 25  1  0
 25 26  2  0
 15 27  1  0
 27 28  2  0
  6 29  1  0
 29 30  1  0
 30 31  2  0
 30  3  1  0
 11  7  1  0
 27 12  1  0
 25 16  1  0
M  END
>  <Title>  (1255) 
idABWGgen8

$$$$

     RDKit          2D

 12 12  0  0  0  0  0  0  0  0999 V2000
    4.6771   -1.2990    0.0000 C   0  0  0  0  0  0  0  0  0  0  0  0
    3.9271    0.0000    0.0000 O   0  0  0  0  0  0  0  0  0  0  0  0
    2.4271    0.0000    0.0000 N   0  0  0  0  0  0  0  0  0  0  0  0
    1.9635   -1.4266    0.0000 C   0  0  0  0  0  0  0  0  0  0  0  0
    0.7500   -2.3083    0.0000 C   0  0  0  0  0  0  0  0  0  0  0  0
   -0.7500   -2.3083    0.0000 C   0  0  0  0  0  0  0  0  0  0  0  0
   -1.9635   -1.4266    0.0000 C   0  0  0  0  0  0  0  0  0  0  0  0
   -2.4271    0.0000    0.0000 C   0  0  0  0  0  0  0  0  0  0  0  0
   -1.9635    1.4266    0.0000 C   0  0  0  0  0  0  0  0  0  0  0  0
   -0.7500    2.3083    0.0000 C   0  0  0  0  0  0  0  0  0  0  0  0
    0.7500    2.3083    0.0000 C   0  0  0  0  0  0  0  0  0  0  0  0
    1.9635    1.4266    0.0000 C   0  0  0  0  0  0  0  0  0  0  0  0
  1  2  1  0
  2  3  1  0
  3  4  1  0
  4  5  1  0
  5  6  1  0
  6  7  1  0
  7  8  1  0
  8  9  1  0
  9 10  1  0
 10 11  1  0
 11 12  1  0
 12  3  1  0
M  END
>  <Title>  (1256) 
idABWHgen8

$$$$

     RDKit          2D

 27 29  0  0  0  0  0  0  0  0999 V2000
    3.4962   -2.3006    0.0000 C   0  0  0  0  0  0  0  0  0  0  0  0
    2.0130   -2.5242    0.0000 O   0  0  0  0  0  0  0  0  0  0  0  0
    1.0777   -1.3515    0.0000 C   0  0  0  0  0  0  0  0  0  0  0  0
   -0.3846   -1.6852    0.0000 C   0  0  0  0  0  0  0  0  0  0  0  0
   -1.5574   -0.7500    0.0000 C   0  0  0  0  0  0  0  0  0  0  0  0
   -1.5574    0.7500    0.0000 C   0  0  0  0  0  0  0  0  0  0  0  0
   -2.9088    1.4008    0.0000 N   0  0  0  0  0  0  0  0  0  0  0  0
   -3.0209    2.8966    0.0000 C   0  0  0  0  0  0  0  0  0  0  0  0
   -4.3724    3.5475    0.0000 C   0  0  0  0  0  0  0  0  0  0  0  0
   -5.6118    2.7025    0.0000 N   0  0  0  0  0  0  0  0  0  0  0  0
   -5.4997    1.2067    0.0000 N   0  0  0  0  0  0  0  0  0  0  0  0
   -4.1482    0.5558    0.0000 N   0  0  0  0  0  0  0  0  0  0  0  0
   -4.0361   -0.9400    0.0000 C   0  0  0  0  0  0  0  0  0  0  0  0
   -2.6847   -1.5908    0.0000 C   0  0  0  0  0  0  0  0  0  0  0  0
   -2.5726   -3.0866    0.0000 C   0  0  0  0  0  0  0  0  0  0  0  0
   -3.8119   -3.9316    0.0000 C   0  0  0  0  0  0  0  0  0  0  0  0
   -3.6998   -5.4274    0.0000 C   0  0  0  0  0  0  0  0  0  0  0  0
   -4.9392   -6.2724    0.0000 O   0  0  0  0  0  0  0  0  0  0  0  0
   -2.3484   -6.0782    0.0000 N   0  0  0  0  0  0  0  0  0  0  0  0
   -2.2363   -7.5740    0.0000 O   0  0  0  0  0  0  0  0  0  0  0  0
   -5.1634   -3.2807    0.0000 N   0  0  0  0  0  0  0  0  0  0  0  0
   -5.2755   -1.7849    0.0000 C   0  0  0  0  0  0  0  0  0  0  0  0
   -6.6269   -1.1341    0.0000 O   0  0  0  0  0  0  0  0  0  0  0  0
   -0.3846    1.6852    0.0000 N   0  0  0  0  0  0  0  0  0  0  0  0
    1.0777    1.3515    0.0000 C   0  0  0  0  0  0  0  0  0  0  0  0
    2.0130    2.5242    0.0000 O   0  0  0  0  0  0  0  0  0  0  0  0
    1.7286    0.0000    0.0000 N   0  0  0  0  0  0  0  0  0  0  0  0
  1  2  1  0
  2  3  1  0
  3  4  2  0
  4  5  1  0
  5  6  2  0
  6  7  1  0
  7  8  1  0
  8  9  2  0
  9 10  1  0
 10 11  2  0
 11 12  1  0
 12 13  1  0
 13 14  2  0
 14 15  1  0
 15 16  2  0
 16 17  1  0
 17 18  2  0
 17 19  1  0
 19 20  1  0
 16 21  1  0
 21 22  1  0
 22 23  2  0
  6 24  1  0
 24 25  1  0
 25 26  2  0
 25 27  1  0
 27  3  1  0
 12  7  1  0
 22 13  1  0
M  END
>  <Title>  (1257) 
idABWIgen8

$$$$

     RDKit          2D

 14 14  0  0  0  0  0  0  0  0999 V2000
    4.6771   -1.2990    0.0000 C   0  0  0  0  0  0  0  0  0  0  0  0
    3.9271    0.0000    0.0000 O   0  0  0  0  0  0  0  0  0  0  0  0
    2.4271    0.0000    0.0000 C   0  0  0  0  0  0  0  0  0  0  0  0
    1.9635   -1.4266    0.0000 C   0  0  0  0  0  0  0  0  0  0  0  0
    0.7500   -2.3083    0.0000 C   0  0  0  0  0  0  0  0  0  0  0  0
   -0.7500   -2.3083    0.0000 C   0  0  0  0  0  0  0  0  0  0  0  0
   -1.9635   -1.4266    0.0000 C   0  0  0  0  0  0  0  0  0  0  0  0
   -2.4271    0.0000    0.0000 C   0  0  0  0  0  0  0  0  0  0  0  0
   -3.9271    0.0000    0.0000 N   0  0  0  0  0  0  0  0  0  0  0  0
   -1.9635    1.4266    0.0000 C   0  0  0  0  0  0  0  0  0  0  0  0
   -3.1771    2.3083    0.0000 C   0  0  0  0  0  0  0  0  0  0  0  0
   -0.7500    2.3083    0.0000 C   0  0  0  0  0  0  0  0  0  0  0  0
    0.7500    2.3083    0.0000 C   0  0  0  0  0  0  0  0  0  0  0  0
    1.9635    1.4266    0.0000 C   0  0  0  0  0  0  0  0  0  0  0  0
  1  2  1  0
  2  3  1  0
  3  4  2  0
  4  5  1  0
  5  6  2  0
  6  7  1  0
  7  8  2  0
  8  9  1  0
  8 10  1  0
 10 11  1  0
 10 12  2  0
 12 13  1  0
 13 14  2  0
 14  3  1  0
M  END
>  <Title>  (1258) 
idABWJgen8

$$$$

     RDKit          2D

 47 54  0  0  0  0  0  0  0  0999 V2000
    3.0000    0.0000    0.0000 C   0  0  0  0  0  0  0  0  0  0  0  0
    1.5000    0.0000    0.0000 C   0  0  0  0  0  0  0  0  0  0  0  0
    0.7500   -1.2990    0.0000 C   0  0  0  0  0  0  0  0  0  0  0  0
   -0.7500   -1.2990    0.0000 C   0  0  0  0  0  0  0  0  0  0  0  0
   -1.5000    0.0000    0.0000 C   0  0  0  0  0  0  0  0  0  0  0  0
   -3.0000    0.0000    0.0000 C   0  0  0  0  0  0  0  0  0  0  0  0
   -3.7500    1.2990    0.0000 C   0  0  0  0  0  0  0  0  0  0  0  0
   -5.2500    1.2990    0.0000 C   0  0  0  0  0  0  0  0  0  0  0  0
   -6.0000    2.5981    0.0000 C   0  0  0  0  0  0  0  0  0  0  0  0
   -7.4918    2.7549    0.0000 N   0  0  0  0  0  0  0  0  0  0  0  0
   -7.8037    4.2221    0.0000 N   0  0  0  0  0  0  0  0  0  0  0  0
   -6.5046    4.9721    0.0000 N   0  0  0  0  0  0  0  0  0  0  0  0
   -5.3899    3.9684    0.0000 N   0  0  0  0  0  0  0  0  0  0  0  0
   -3.9227    4.2803    0.0000 C   0  0  0  0  0  0  0  0  0  0  0  0
   -2.9190    3.1655    0.0000 C   0  0  0  0  0  0  0  0  0  0  0  0
   -1.4518    3.4774    0.0000 C   0  0  0  0  0  0  0  0  0  0  0  0
   -0.9882    4.9040    0.0000 C   0  0  0  0  0  0  0  0  0  0  0  0
   -1.9919    6.0187    0.0000 C   0  0  0  0  0  0  0  0  0  0  0  0
   -3.4591    5.7068    0.0000 C   0  0  0  0  0  0  0  0  0  0  0  0
   -4.4628    6.8216    0.0000 C   0  0  0  0  0  0  0  0  0  0  0  0
   -3.9993    8.2481    0.0000 C   0  0  0  0  0  0  0  0  0  0  0  0
   -5.0030    9.3629    0.0000 C   0  0  0  0  0  0  0  0  0  0  0  0
   -6.4702    9.0510    0.0000 C   0  0  0  0  0  0  0  0  0  0  0  0
   -6.9338    7.6244    0.0000 C   0  0  0  0  0  0  0  0  0  0  0  0
   -5.9301    6.5097    0.0000 C   0  0  0  0  0  0  0  0  0  0  0  0
   -6.0000    0.0000    0.0000 C   0  0  0  0  0  0  0  0  0  0  0  0
   -5.2500   -1.2990    0.0000 C   0  0  0  0  0  0  0  0  0  0  0  0
   -3.7500   -1.2990    0.0000 C   0  0  0  0  0  0  0  0  0  0  0  0
   -3.0000   -2.5981    0.0000 N   0  0  0  0  0  0  0  0  0  0  0  0
   -1.5082   -2.7549    0.0000 N   0  0  0  0  0  0  0  0  0  0  0  0
   -1.1963   -4.2221    0.0000 N   0  0  0  0  0  0  0  0  0  0  0  0
   -2.4954   -4.9721    0.0000 C   0  0  0  0  0  0  0  0  0  0  0  0
   -3.6101   -3.9684    0.0000 C   0  0  0  0  0  0  0  0  0  0  0  0
   -5.0773   -4.2803    0.0000 N   0  0  0  0  0  0  0  0  0  0  0  0
   -6.1920   -3.2766    0.0000 N   0  0  0  0  0  0  0  0  0  0  0  0
   -7.4911   -4.0266    0.0000 N   0  0  0  0  0  0  0  0  0  0  0  0
   -7.1792   -5.4938    0.0000 N   0  0  0  0  0  0  0  0  0  0  0  0
   -5.6874   -5.6506    0.0000 C   0  0  0  0  0  0  0  0  0  0  0  0
   -4.9374   -6.9496    0.0000 C   0  0  0  0  0  0  0  0  0  0  0  0
   -5.6874   -8.2487    0.0000 C   0  0  0  0  0  0  0  0  0  0  0  0
   -4.9374   -9.5477    0.0000 C   0  0  0  0  0  0  0  0  0  0  0  0
   -3.4374   -9.5477    0.0000 C   0  0  0  0  0  0  0  0  0  0  0  0
   -2.6874  -10.8467    0.0000 C   0  0  0  0  0  0  0  0  0  0  0  0
   -2.6874   -8.2487    0.0000 N   0  0  0  0  0  0  0  0  0  0  0  0
   -3.4374   -6.9496    0.0000 C   0  0  0  0  0  0  0  0  0  0  0  0
   -0.7500    1.2990    0.0000 C   0  0  0  0  0  0  0  0  0  0  0  0
    0.7500    1.2990    0.0000 C   0  0  0  0  0  0  0  0  0  0  0  0
  1  2  1  0
  2  3  2  0
  3  4  1  0
  4  5  2  0
  5  6  1  0
  6  7  2  0
  7  8  1  0
  8  9  1  0
  9 10  2  0
 10 11  1  0
 11 12  2  0
 12 13  1  0
 13 14  1  0
 14 15  2  0
 15 16  1  0
 16 17  2  0
 17 18  1  0
 18 19  2  0
 19 20  1  0
 20 21  2  0
 21 22  1  0
 22 23  2  0
 23 24  1  0
 24 25  2  0
  8 26  2  0
 26 27  1  0
 27 28  2  0
 28 29  1  0
 29 30  1  0
 30 31  2  0
 31 32  1  0
 32 33  2  0
 33 34  1  0
 34 35  1  0
 35 36  2  0
 36 37  1  0
 37 38  2  0
 38 39  1  0
 39 40  2  0
 40 41  1  0
 41 42  2  0
 42 43  1  0
 42 44  1  0
 44 45  2  0
  5 46  1  0
 46 47  2  0
 47  2  1  0
 28  6  1  0
 33 29  1  0
 38 34  1  0
 45 39  1  0
 13  9  1  0
 19 14  1  0
 25 20  1  0
M  END
>  <Title>  (1259) 
idABWKgen8

$$$$

     RDKit          2D

 47 54  0  0  0  0  0  0  0  0999 V2000
    3.0000    0.0000    0.0000 C   0  0  0  0  0  0  0  0  0  0  0  0
    1.5000    0.0000    0.0000 C   0  0  0  0  0  0  0  0  0  0  0  0
    0.7500   -1.2990    0.0000 C   0  0  0  0  0  0  0  0  0  0  0  0
   -0.7500   -1.2990    0.0000 C   0  0  0  0  0  0  0  0  0  0  0  0
   -1.5000    0.0000    0.0000 C   0  0  0  0  0  0  0  0  0  0  0  0
   -3.0000    0.0000    0.0000 C   0  0  0  0  0  0  0  0  0  0  0  0
   -3.8817   -1.2135    0.0000 N   0  0  0  0  0  0  0  0  0  0  0  0
   -5.3083   -0.7500    0.0000 N   0  0  0  0  0  0  0  0  0  0  0  0
   -5.3083    0.7500    0.0000 N   0  0  0  0  0  0  0  0  0  0  0  0
   -3.8817    1.2135    0.0000 N   0  0  0  0  0  0  0  0  0  0  0  0
   -3.4182    2.6401    0.0000 C   0  0  0  0  0  0  0  0  0  0  0  0
   -1.9509    2.9520    0.0000 C   0  0  0  0  0  0  0  0  0  0  0  0
   -1.4874    4.3786    0.0000 C   0  0  0  0  0  0  0  0  0  0  0  0
   -2.4911    5.4933    0.0000 C   0  0  0  0  0  0  0  0  0  0  0  0
   -3.9583    5.1814    0.0000 C   0  0  0  0  0  0  0  0  0  0  0  0
   -4.4218    3.7548    0.0000 C   0  0  0  0  0  0  0  0  0  0  0  0
   -5.8891    3.4430    0.0000 C   0  0  0  0  0  0  0  0  0  0  0  0
   -6.4992    2.0726    0.0000 C   0  0  0  0  0  0  0  0  0  0  0  0
   -7.9910    2.2294    0.0000 N   0  0  0  0  0  0  0  0  0  0  0  0
   -8.3028    3.6967    0.0000 N   0  0  0  0  0  0  0  0  0  0  0  0
   -7.0038    4.4467    0.0000 N   0  0  0  0  0  0  0  0  0  0  0  0
   -6.8470    5.9384    0.0000 C   0  0  0  0  0  0  0  0  0  0  0  0
   -5.4767    6.5485    0.0000 C   0  0  0  0  0  0  0  0  0  0  0  0
   -5.3199    8.0403    0.0000 C   0  0  0  0  0  0  0  0  0  0  0  0
   -6.5334    8.9220    0.0000 C   0  0  0  0  0  0  0  0  0  0  0  0
   -6.3766   10.4138    0.0000 C   0  0  0  0  0  0  0  0  0  0  0  0
   -5.0063   11.0239    0.0000 C   0  0  0  0  0  0  0  0  0  0  0  0
   -4.8495   12.5157    0.0000 C   0  0  0  0  0  0  0  0  0  0  0  0
   -6.0630   13.3974    0.0000 C   0  0  0  0  0  0  0  0  0  0  0  0
   -7.4333   12.7872    0.0000 N   0  0  0  0  0  0  0  0  0  0  0  0
   -7.5901   11.2955    0.0000 C   0  0  0  0  0  0  0  0  0  0  0  0
   -8.9605   10.6854    0.0000 C   0  0  0  0  0  0  0  0  0  0  0  0
   -9.1173    9.1936    0.0000 C   0  0  0  0  0  0  0  0  0  0  0  0
  -10.4876    8.5835    0.0000 C   0  0  0  0  0  0  0  0  0  0  0  0
  -11.7011    9.4652    0.0000 C   0  0  0  0  0  0  0  0  0  0  0  0
  -11.5443   10.9569    0.0000 C   0  0  0  0  0  0  0  0  0  0  0  0
  -10.1740   11.5670    0.0000 C   0  0  0  0  0  0  0  0  0  0  0  0
  -10.0172   13.0588    0.0000 C   0  0  0  0  0  0  0  0  0  0  0  0
  -11.2307   13.9405    0.0000 C   0  0  0  0  0  0  0  0  0  0  0  0
  -11.0739   15.4323    0.0000 C   0  0  0  0  0  0  0  0  0  0  0  0
   -9.7036   16.0424    0.0000 C   0  0  0  0  0  0  0  0  0  0  0  0
   -8.4901   15.1607    0.0000 C   0  0  0  0  0  0  0  0  0  0  0  0
   -8.6469   13.6689    0.0000 C   0  0  0  0  0  0  0  0  0  0  0  0
   -7.9037    8.3119    0.0000 C   0  0  0  0  0  0  0  0  0  0  0  0
   -8.0605    6.8201    0.0000 C   0  0  0  0  0  0  0  0  0  0  0  0
   -0.7500    1.2990    0.0000 C   0  0  0  0  0  0  0  0  0  0  0  0
    0.7500    1.2990    0.0000 C   0  0  0  0  0  0  0  0  0  0  0  0
  1  2  1  0
  2  3  2  0
  3  4  1  0
  4  5  2  0
  5  6  1  0
  6  7  2  0
  7  8  1  0
  8  9  2  0
  9 10  1  0
 10 11  1  0
 11 12  2  0
 12 13  1  0
 13 14  2  0
 14 15  1  0
 15 16  2  0
 16 17  1  0
 17 18  2  0
 18 19  1  0
 19 20  2  0
 20 21  1  0
 21 22  1  0
 22 23  2  0
 23 24  1  0
 24 25  2  0
 25 26  1  0
 26 27  2  0
 27 28  1  0
 28 29  2  0
 29 30  1  0
 30 31  2  0
 31 32  1  0
 32 33  2  0
 33 34  1  0
 34 35  2  0
 35 36  1  0
 36 37  2  0
 37 38  1  0
 38 39  2  0
 39 40  1  0
 40 41  2  0
 41 42  1  0
 42 43  2  0
 25 44  1  0
 44 45  2  0
  5 46  1  0
 46 47  2  0
 47  2  1  0
 10  6  1  0
 16 11  1  0
 21 17  1  0
 45 22  1  0
 31 26  1  0
 37 32  1  0
 43 38  1  0
M  END
>  <Title>  (1260) 
idABWLgen8

$$$$

     RDKit          2D

 16 17  0  0  0  0  0  0  0  0999 V2000
    3.7488    5.7570    0.0000 C   0  0  0  0  0  0  0  0  0  0  0  0
    2.5531    4.8513    0.0000 C   0  0  0  0  0  0  0  0  0  0  0  0
    2.9952    3.4180    0.0000 C   0  0  0  0  0  0  0  0  0  0  0  0
    2.4126    2.0358    0.0000 C   0  0  0  0  0  0  0  0  0  0  0  0
    1.0777    1.3515    0.0000 C   0  0  0  0  0  0  0  0  0  0  0  0
    1.7286    0.0000    0.0000 C   0  0  0  0  0  0  0  0  0  0  0  0
    1.0777   -1.3515    0.0000 C   0  0  0  0  0  0  0  0  0  0  0  0
   -0.3846   -1.6852    0.0000 C   0  0  0  0  0  0  0  0  0  0  0  0
   -1.5574   -0.7500    0.0000 C   0  0  0  0  0  0  0  0  0  0  0  0
   -1.5574    0.7500    0.0000 C   0  0  0  0  0  0  0  0  0  0  0  0
   -0.3846    1.6852    0.0000 C   0  0  0  0  0  0  0  0  0  0  0  0
   -1.2904    2.8809    0.0000 C   0  0  0  0  0  0  0  0  0  0  0  0
   -1.2156    4.3791    0.0000 C   0  0  0  0  0  0  0  0  0  0  0  0
   -0.1953    5.4786    0.0000 C   0  0  0  0  0  0  0  0  0  0  0  0
    1.2930    5.6652    0.0000 C   0  0  0  0  0  0  0  0  0  0  0  0
    1.6268    7.1276    0.0000 O   0  0  0  0  0  0  0  0  0  0  0  0
  1  2  1  0
  2  3  2  0
  3  4  1  0
  4  5  2  0
  5  6  1  0
  6  7  2  0
  7  8  1  0
  8  9  2  0
  9 10  1  0
 10 11  2  0
 11 12  1  0
 12 13  2  0
 13 14  1  0
 14 15  2  0
 15 16  1  0
 15  2  1  0
 11  5  1  0
M  END
>  <Title>  (1261) 
idABWMgen8

$$$$

     RDKit          2D

 60 67  0  0  0  0  0  0  0  0999 V2000
   -6.4049   -2.7307    0.0000 C   0  0  0  0  0  0  0  0  0  0  0  0
   -4.9560   -3.1189    0.0000 C   0  0  0  0  0  0  0  0  0  0  0  0
   -3.8954   -2.0583    0.0000 C   0  0  0  0  0  0  0  0  0  0  0  0
   -2.4465   -2.4465    0.0000 C   0  0  0  0  0  0  0  0  0  0  0  0
   -0.8908   -0.8908    0.0000 C   0  0  0  0  0  0  0  0  0  0  0  0
   -0.0000   -1.2598    0.0000 C   0  0  0  0  0  0  0  0  0  0  0  0
   -0.0000   -3.4598    0.0000 O   0  0  0  0  0  0  0  0  0  0  0  0
    1.3858   -1.3858    0.0000 N   0  0  0  0  0  0  0  0  0  0  0  0
    1.9598    0.0000    0.0000 N   0  0  0  0  0  0  0  0  0  0  0  0
    1.3858    1.3858    0.0000 N   0  0  0  0  0  0  0  0  0  0  0  0
    0.0000    1.9598    0.0000 N   0  0  0  0  0  0  0  0  0  0  0  0
   -1.3858    1.3858    0.0000 C   0  0  0  0  0  0  0  0  0  0  0  0
   -1.9598    0.0000    0.0000 C   0  0  0  0  0  0  0  0  0  0  0  0
   -1.9793   -1.5748    0.0000 C   0  0  0  0  0  0  0  0  0  0  0  0
   -0.9798   -2.6933    0.0000 C   0  0  0  0  0  0  0  0  0  0  0  0
    0.5178   -2.6092    0.0000 C   0  0  0  0  0  0  0  0  0  0  0  0
    1.2434   -3.9220    0.0000 C   0  0  0  0  0  0  0  0  0  0  0  0
    0.4692   -5.2068    0.0000 C   0  0  0  0  0  0  0  0  0  0  0  0
    1.1948   -6.5196    0.0000 C   0  0  0  0  0  0  0  0  0  0  0  0
    0.4207   -7.8044    0.0000 C   0  0  0  0  0  0  0  0  0  0  0  0
    1.1462   -9.1172    0.0000 O   0  0  0  0  0  0  0  0  0  0  0  0
   -1.0791   -7.7764    0.0000 N   0  0  0  0  0  0  0  0  0  0  0  0
   -1.8532   -9.0611    0.0000 C   0  0  0  0  0  0  0  0  0  0  0  0
   -1.1277  -10.3740    0.0000 O   0  0  0  0  0  0  0  0  0  0  0  0
   -3.3530   -9.0331    0.0000 C   0  0  0  0  0  0  0  0  0  0  0  0
   -4.2572  -10.2299    0.0000 N   0  0  0  0  0  0  0  0  0  0  0  0
   -5.6749   -9.7398    0.0000 N   0  0  0  0  0  0  0  0  0  0  0  0
   -5.6468   -8.2401    0.0000 N   0  0  0  0  0  0  0  0  0  0  0  0
   -4.2118   -7.8033    0.0000 N   0  0  0  0  0  0  0  0  0  0  0  0
   -3.7217   -6.3856    0.0000 C   0  0  0  0  0  0  0  0  0  0  0  0
   -2.2489   -6.1012    0.0000 C   0  0  0  0  0  0  0  0  0  0  0  0
   -1.7588   -4.6836    0.0000 C   0  0  0  0  0  0  0  0  0  0  0  0
   -2.7415   -3.5503    0.0000 C   0  0  0  0  0  0  0  0  0  0  0  0
   -4.2143   -3.8347    0.0000 C   0  0  0  0  0  0  0  0  0  0  0  0
   -4.7044   -5.2523    0.0000 C   0  0  0  0  0  0  0  0  0  0  0  0
    2.6945   -6.5477    0.0000 C   0  0  0  0  0  0  0  0  0  0  0  0
    3.4687   -5.2629    0.0000 C   0  0  0  0  0  0  0  0  0  0  0  0
    2.7431   -3.9500    0.0000 C   0  0  0  0  0  0  0  0  0  0  0  0
    3.5173   -2.6653    0.0000 N   0  0  0  0  0  0  0  0  0  0  0  0
    2.9329   -1.2838    0.0000 N   0  0  0  0  0  0  0  0  0  0  0  0
    4.0662   -0.3011    0.0000 N   0  0  0  0  0  0  0  0  0  0  0  0
    5.3510   -1.0753    0.0000 N   0  0  0  0  0  0  0  0  0  0  0  0
    5.0117   -2.5364    0.0000 C   0  0  0  0  0  0  0  0  0  0  0  0
    5.9944   -3.6697    0.0000 C   0  0  0  0  0  0  0  0  0  0  0  0
    5.5043   -5.0873    0.0000 C   0  0  0  0  0  0  0  0  0  0  0  0
    6.4870   -6.2206    0.0000 C   0  0  0  0  0  0  0  0  0  0  0  0
    7.9598   -5.9363    0.0000 C   0  0  0  0  0  0  0  0  0  0  0  0
    8.9424   -7.0695    0.0000 C   0  0  0  0  0  0  0  0  0  0  0  0
    8.4499   -4.5186    0.0000 C   0  0  0  0  0  0  0  0  0  0  0  0
    9.9227   -4.2342    0.0000 O   0  0  0  0  0  0  0  0  0  0  0  0
    7.4672   -3.3853    0.0000 N   0  0  0  0  0  0  0  0  0  0  0  0
   -4.5678   -4.5678    0.0000 C   0  0  0  0  0  0  0  0  0  0  0  0
   -3.1189   -4.9560    0.0000 O   0  0  0  0  0  0  0  0  0  0  0  0
   -5.6285   -5.6285    0.0000 N   0  0  0  0  0  0  0  0  0  0  0  0
   -5.2402   -7.0773    0.0000 C   0  0  0  0  0  0  0  0  0  0  0  0
   -6.3009   -8.1380    0.0000 C   0  0  0  0  0  0  0  0  0  0  0  0
   -5.9127   -9.5869    0.0000 C   0  0  0  0  0  0  0  0  0  0  0  0
   -4.4638   -9.9751    0.0000 C   0  0  0  0  0  0  0  0  0  0  0  0
   -3.4031   -8.9145    0.0000 C   0  0  0  0  0  0  0  0  0  0  0  0
   -3.7913   -7.4656    0.0000 C   0  0  0  0  0  0  0  0  0  0  0  0
  1  2  1  0
  2  3  2  3
  3  4  1  0
  4  5  2  3
  5  6  1  0
  6  7  2  0
  6  8  1  0
  8  9  1  0
  9 10  2  0
 10 11  1  0
 11 12  2  0
 12 13  1  0
 13 14  2  0
 14 15  1  0
 15 16  2  0
 16 17  1  0
 17 18  2  0
 18 19  1  0
 19 20  1  0
 20 21  2  0
 20 22  1  0
 22 23  1  0
 23 24  2  0
 23 25  1  0
 25 26  2  0
 26 27  1  0
 27 28  2  0
 28 29  1  0
 29 30  1  0
 30 31  2  0
 31 32  1  0
 32 33  2  0
 33 34  1  0
 34 35  2  0
 19 36  2  0
 36 37  1  0
 37 38  2  0
 38 39  1  0
 39 40  1  0
 40 41  2  0
 41 42  1  0
 42 43  2  0
 43 44  1  0
 44 45  2  0
 45 46  1  0
 46 47  2  0
 47 48  1  0
 47 49  1  0
 49 50  2  0
 49 51  1  0
  2 52  1  0
 52 53  2  0
 52 54  1  0
 54 55  1  0
 55 56  2  0
 56 57  1  0
 57 58  2  0
 58 59  1  0
 59 60  2  0
 13  5  1  0
 38 17  1  0
 43 39  1  0
 51 44  1  0
 60 55  1  0
 16  8  1  0
 29 25  1  0
 35 30  1  0
M  END
>  <Title>  (1262) 
idABWNgen8

$$$$

     RDKit          2D

 16 17  0  0  0  0  0  0  0  0999 V2000
    1.4650    3.9205    0.0000 O   0  0  0  0  0  0  0  0  0  0  0  0
    2.0130    2.5242    0.0000 C   0  0  0  0  0  0  0  0  0  0  0  0
    3.4962    2.3006    0.0000 N   0  0  0  0  0  0  0  0  0  0  0  0
    4.4315    3.4734    0.0000 C   0  0  0  0  0  0  0  0  0  0  0  0
    5.9147    3.2498    0.0000 C   0  0  0  0  0  0  0  0  0  0  0  0
    6.8499    4.4226    0.0000 C   0  0  0  0  0  0  0  0  0  0  0  0
    6.3019    5.8189    0.0000 C   0  0  0  0  0  0  0  0  0  0  0  0
    4.8187    6.0424    0.0000 C   0  0  0  0  0  0  0  0  0  0  0  0
    3.8835    4.8697    0.0000 C   0  0  0  0  0  0  0  0  0  0  0  0
    1.0777    1.3515    0.0000 C   0  0  0  0  0  0  0  0  0  0  0  0
    1.7286    0.0000    0.0000 C   0  0  0  0  0  0  0  0  0  0  0  0
    1.0777   -1.3515    0.0000 C   0  0  0  0  0  0  0  0  0  0  0  0
   -0.3846   -1.6852    0.0000 C   0  0  0  0  0  0  0  0  0  0  0  0
   -1.5574   -0.7500    0.0000 C   0  0  0  0  0  0  0  0  0  0  0  0
   -1.5574    0.7500    0.0000 C   0  0  0  0  0  0  0  0  0  0  0  0
   -0.3846    1.6852    0.0000 C   0  0  0  0  0  0  0  0  0  0  0  0
  1  2  2  0
  2  3  1  0
  3  4  1  0
  4  5  2  0
  5  6  1  0
  6  7  2  0
  7  8  1  0
  8  9  2  0
  2 10  1  0
 10 11  2  0
 11 12  1  0
 12 13  2  0
 13 14  1  0
 14 15  2  0
 15 16  1  0
  9  4  1  0
 16 10  1  0
M  END
>  <Title>  (1263) 
idABWOgen8

$$$$

     RDKit          2D

 20 20  0  0  0  0  0  0  0  0999 V2000
    6.5691   -1.2990    0.0000 C   0  0  0  0  0  0  0  0  0  0  0  0
    5.8191    0.0000    0.0000 O   0  0  0  0  0  0  0  0  0  0  0  0
    4.3191    0.0000    0.0000 C   0  0  0  0  0  0  0  0  0  0  0  0
    4.0586   -1.4772    0.0000 C   0  0  0  0  0  0  0  0  0  0  0  0
    3.3086   -2.7762    0.0000 C   0  0  0  0  0  0  0  0  0  0  0  0
    2.1595   -3.7404    0.0000 C   0  0  0  0  0  0  0  0  0  0  0  0
    0.7500   -4.2535    0.0000 C   0  0  0  0  0  0  0  0  0  0  0  0
   -0.7500   -4.2535    0.0000 C   0  0  0  0  0  0  0  0  0  0  0  0
   -2.1595   -3.7404    0.0000 C   0  0  0  0  0  0  0  0  0  0  0  0
   -3.3086   -2.7762    0.0000 C   0  0  0  0  0  0  0  0  0  0  0  0
   -4.0586   -1.4772    0.0000 C   0  0  0  0  0  0  0  0  0  0  0  0
   -4.3191    0.0000    0.0000 C   0  0  0  0  0  0  0  0  0  0  0  0
   -4.0586    1.4772    0.0000 C   0  0  0  0  0  0  0  0  0  0  0  0
   -3.3086    2.7762    0.0000 C   0  0  0  0  0  0  0  0  0  0  0  0
   -2.1595    3.7404    0.0000 C   0  0  0  0  0  0  0  0  0  0  0  0
   -0.7500    4.2535    0.0000 C   0  0  0  0  0  0  0  0  0  0  0  0
    0.7500    4.2535    0.0000 C   0  0  0  0  0  0  0  0  0  0  0  0
    2.1595    3.7404    0.0000 C   0  0  0  0  0  0  0  0  0  0  0  0
    3.3086    2.7762    0.0000 C   0  0  0  0  0  0  0  0  0  0  0  0
    4.0586    1.4772    0.0000 C   0  0  0  0  0  0  0  0  0  0  0  0
  1  2  1  0
  2  3  1  0
  3  4  2  0
  4  5  1  0
  5  6  2  0
  6  7  2  0
  7  8  2  0
  8  9  1  0
  9 10  2  0
 10 11  1  0
 11 12  2  0
 12 13  1  0
 13 14  2  0
 14 15  1  0
 15 16  2  0
 16 17  1  0
 17 18  2  0
 18 19  1  0
 19 20  2  0
 20  3  1  0
M  END
>  <Title>  (1264) 
idABWPgen8

$$$$

     RDKit          2D

 14 15  0  0  0  0  0  0  0  0999 V2000
    1.9130    6.5742    0.0000 C   0  0  0  0  0  0  0  0  0  0  0  0
    0.4276    6.3655    0.0000 O   0  0  0  0  0  0  0  0  0  0  0  0
   -0.1343    4.9747    0.0000 C   0  0  0  0  0  0  0  0  0  0  0  0
    0.9804    3.9710    0.0000 C   0  0  0  0  0  0  0  0  0  0  0  0
    1.1892    2.4856    0.0000 C   0  0  0  0  0  0  0  0  0  0  0  0
    0.3943    1.2135    0.0000 C   0  0  0  0  0  0  0  0  0  0  0  0
    1.2760    0.0000    0.0000 C   0  0  0  0  0  0  0  0  0  0  0  0
    0.3943   -1.2135    0.0000 C   0  0  0  0  0  0  0  0  0  0  0  0
   -1.0323   -0.7500    0.0000 C   0  0  0  0  0  0  0  0  0  0  0  0
   -1.0323    0.7500    0.0000 C   0  0  0  0  0  0  0  0  0  0  0  0
   -2.4231    1.3119    0.0000 C   0  0  0  0  0  0  0  0  0  0  0  0
   -3.1273    2.6363    0.0000 C   0  0  0  0  0  0  0  0  0  0  0  0
   -2.8154    4.1036    0.0000 C   0  0  0  0  0  0  0  0  0  0  0  0
   -1.6334    5.0270    0.0000 C   0  0  0  0  0  0  0  0  0  0  0  0
  1  2  1  0
  2  3  1  0
  3  4  2  0
  4  5  1  0
  5  6  2  0
  6  7  1  0
  7  8  2  0
  8  9  1  0
  9 10  2  0
 10 11  1  0
 11 12  1  0
 12 13  1  0
 13 14  1  0
 14  3  1  0
 10  6  1  0
M  END
>  <Title>  (1265) 
idABWQgen8

$$$$

     RDKit          2D

 35 40  0  0  0  0  0  0  0  0999 V2000
  -10.1624    4.2767    0.0000 C   0  0  0  0  0  0  0  0  0  0  0  0
   -8.9488    3.3950    0.0000 C   0  0  0  0  0  0  0  0  0  0  0  0
   -7.5785    4.0051    0.0000 C   0  0  0  0  0  0  0  0  0  0  0  0
   -6.3650    3.1235    0.0000 C   0  0  0  0  0  0  0  0  0  0  0  0
   -6.5218    1.6317    0.0000 C   0  0  0  0  0  0  0  0  0  0  0  0
   -5.3083    0.7500    0.0000 C   0  0  0  0  0  0  0  0  0  0  0  0
   -5.3083   -0.7500    0.0000 N   0  0  0  0  0  0  0  0  0  0  0  0
   -3.8817   -1.2135    0.0000 N   0  0  0  0  0  0  0  0  0  0  0  0
   -3.0000    0.0000    0.0000 N   0  0  0  0  0  0  0  0  0  0  0  0
   -3.8817    1.2135    0.0000 N   0  0  0  0  0  0  0  0  0  0  0  0
   -3.4182    2.6401    0.0000 C   0  0  0  0  0  0  0  0  0  0  0  0
   -4.2998    3.8536    0.0000 C   0  0  0  0  0  0  0  0  0  0  0  0
   -3.4182    5.0672    0.0000 N   0  0  0  0  0  0  0  0  0  0  0  0
   -1.9916    4.6036    0.0000 N   0  0  0  0  0  0  0  0  0  0  0  0
   -1.9916    3.1036    0.0000 N   0  0  0  0  0  0  0  0  0  0  0  0
   -0.7780    2.2220    0.0000 C   0  0  0  0  0  0  0  0  0  0  0  0
   -0.7780    0.7220    0.0000 C   0  0  0  0  0  0  0  0  0  0  0  0
    0.6485    0.2584    0.0000 C   0  0  0  0  0  0  0  0  0  0  0  0
    1.5302    1.4720    0.0000 C   0  0  0  0  0  0  0  0  0  0  0  0
    3.0302    1.4720    0.0000 C   0  0  0  0  0  0  0  0  0  0  0  0
    3.9119    0.2584    0.0000 N   0  0  0  0  0  0  0  0  0  0  0  0
    5.3385    0.7220    0.0000 N   0  0  0  0  0  0  0  0  0  0  0  0
    5.3385    2.2220    0.0000 N   0  0  0  0  0  0  0  0  0  0  0  0
    3.9119    2.6855    0.0000 N   0  0  0  0  0  0  0  0  0  0  0  0
    3.4484    4.1121    0.0000 C   0  0  0  0  0  0  0  0  0  0  0  0
    1.9812    4.4239    0.0000 C   0  0  0  0  0  0  0  0  0  0  0  0
    1.5176    5.8505    0.0000 C   0  0  0  0  0  0  0  0  0  0  0  0
    2.5213    6.9652    0.0000 C   0  0  0  0  0  0  0  0  0  0  0  0
    3.9885    6.6534    0.0000 C   0  0  0  0  0  0  0  0  0  0  0  0
    4.4521    5.2268    0.0000 C   0  0  0  0  0  0  0  0  0  0  0  0
    0.6485    2.6855    0.0000 C   0  0  0  0  0  0  0  0  0  0  0  0
    1.1121    4.1121    0.0000 O   0  0  0  0  0  0  0  0  0  0  0  0
   -7.8921    1.0216    0.0000 C   0  0  0  0  0  0  0  0  0  0  0  0
   -8.0489   -0.4702    0.0000 O   0  0  0  0  0  0  0  0  0  0  0  0
   -9.1056    1.9033    0.0000 N   0  0  0  0  0  0  0  0  0  0  0  0
  1  2  1  0
  2  3  2  0
  3  4  1  0
  4  5  2  0
  5  6  1  0
  6  7  2  0
  7  8  1  0
  8  9  2  0
  9 10  1  0
 10 11  1  0
 11 12  2  0
 12 13  1  0
 13 14  2  0
 14 15  1  0
 15 16  1  0
 16 17  2  0
 17 18  1  0
 18 19  2  0
 19 20  1  0
 20 21  2  0
 21 22  1  0
 22 23  2  0
 23 24  1  0
 24 25  1  0
 25 26  2  0
 26 27  1  0
 27 28  2  0
 28 29  1  0
 29 30  2  0
 19 31  1  0
 31 32  2  0
  5 33  1  0
 33 34  2  0
 33 35  1  0
 35  2  1  0
 10  6  1  0
 15 11  1  0
 31 16  1  0
 24 20  1  0
 30 25  1  0
M  END
>  <Title>  (1266) 
idABWRgen8

$$$$

     RDKit          2D

 58 66  0  0  0  0  0  0  0  0999 V2000
    3.0000    0.0000    0.0000 C   0  0  0  0  0  0  0  0  0  0  0  0
    1.5000    0.0000    0.0000 C   0  0  0  0  0  0  0  0  0  0  0  0
    0.7500    1.2990    0.0000 C   0  0  0  0  0  0  0  0  0  0  0  0
   -0.7500    1.2990    0.0000 C   0  0  0  0  0  0  0  0  0  0  0  0
   -1.5000    0.0000    0.0000 C   0  0  0  0  0  0  0  0  0  0  0  0
   -3.0000    0.0000    0.0000 C   0  0  0  0  0  0  0  0  0  0  0  0
   -3.8817   -1.2135    0.0000 N   0  0  0  0  0  0  0  0  0  0  0  0
   -5.3083   -0.7500    0.0000 N   0  0  0  0  0  0  0  0  0  0  0  0
   -5.3083    0.7500    0.0000 N   0  0  0  0  0  0  0  0  0  0  0  0
   -3.8817    1.2135    0.0000 N   0  0  0  0  0  0  0  0  0  0  0  0
   -3.4182    2.6401    0.0000 C   0  0  0  0  0  0  0  0  0  0  0  0
   -1.9509    2.9520    0.0000 C   0  0  0  0  0  0  0  0  0  0  0  0
   -1.4874    4.3786    0.0000 C   0  0  0  0  0  0  0  0  0  0  0  0
   -2.4911    5.4933    0.0000 C   0  0  0  0  0  0  0  0  0  0  0  0
   -2.0276    6.9199    0.0000 C   0  0  0  0  0  0  0  0  0  0  0  0
   -3.0313    8.0346    0.0000 O   0  0  0  0  0  0  0  0  0  0  0  0
   -0.5604    7.2317    0.0000 N   0  0  0  0  0  0  0  0  0  0  0  0
   -0.0968    8.6583    0.0000 C   0  0  0  0  0  0  0  0  0  0  0  0
   -0.9785    9.8718    0.0000 N   0  0  0  0  0  0  0  0  0  0  0  0
   -0.0968   11.0854    0.0000 N   0  0  0  0  0  0  0  0  0  0  0  0
    1.3298   10.6218    0.0000 N   0  0  0  0  0  0  0  0  0  0  0  0
    1.3298    9.1218    0.0000 N   0  0  0  0  0  0  0  0  0  0  0  0
    2.5433    8.2402    0.0000 C   0  0  0  0  0  0  0  0  0  0  0  0
    2.3865    6.7484    0.0000 C   0  0  0  0  0  0  0  0  0  0  0  0
    3.6000    5.8667    0.0000 C   0  0  0  0  0  0  0  0  0  0  0  0
    4.9703    6.4768    0.0000 C   0  0  0  0  0  0  0  0  0  0  0  0
    5.1271    7.9686    0.0000 C   0  0  0  0  0  0  0  0  0  0  0  0
    3.9136    8.8503    0.0000 C   0  0  0  0  0  0  0  0  0  0  0  0
   -3.9583    5.1814    0.0000 C   0  0  0  0  0  0  0  0  0  0  0  0
   -4.4218    3.7548    0.0000 C   0  0  0  0  0  0  0  0  0  0  0  0
   -5.8891    3.4430    0.0000 C   0  0  0  0  0  0  0  0  0  0  0  0
   -6.8928    4.5577    0.0000 C   0  0  0  0  0  0  0  0  0  0  0  0
   -8.3600    4.2458    0.0000 C   0  0  0  0  0  0  0  0  0  0  0  0
   -8.8235    2.8192    0.0000 C   0  0  0  0  0  0  0  0  0  0  0  0
  -10.2907    2.5074    0.0000 C   0  0  0  0  0  0  0  0  0  0  0  0
  -10.7543    1.0808    0.0000 O   0  0  0  0  0  0  0  0  0  0  0  0
  -11.2944    3.6221    0.0000 N   0  0  0  0  0  0  0  0  0  0  0  0
  -12.7617    3.3102    0.0000 C   0  0  0  0  0  0  0  0  0  0  0  0
  -13.3718    1.9399    0.0000 N   0  0  0  0  0  0  0  0  0  0  0  0
  -14.8635    2.0967    0.0000 N   0  0  0  0  0  0  0  0  0  0  0  0
  -15.1754    3.5639    0.0000 N   0  0  0  0  0  0  0  0  0  0  0  0
  -13.8764    4.3139    0.0000 N   0  0  0  0  0  0  0  0  0  0  0  0
  -13.7196    5.8057    0.0000 C   0  0  0  0  0  0  0  0  0  0  0  0
  -12.4205    6.5557    0.0000 N   0  0  0  0  0  0  0  0  0  0  0  0
  -12.7324    8.0229    0.0000 N   0  0  0  0  0  0  0  0  0  0  0  0
  -14.2242    8.1797    0.0000 N   0  0  0  0  0  0  0  0  0  0  0  0
  -14.8343    6.8094    0.0000 N   0  0  0  0  0  0  0  0  0  0  0  0
  -16.3015    6.4975    0.0000 C   0  0  0  0  0  0  0  0  0  0  0  0
  -16.7650    5.0709    0.0000 C   0  0  0  0  0  0  0  0  0  0  0  0
  -18.2323    4.7591    0.0000 C   0  0  0  0  0  0  0  0  0  0  0  0
  -19.2360    5.8738    0.0000 C   0  0  0  0  0  0  0  0  0  0  0  0
  -18.7724    7.3004    0.0000 C   0  0  0  0  0  0  0  0  0  0  0  0
  -17.3052    7.6122    0.0000 C   0  0  0  0  0  0  0  0  0  0  0  0
   -7.8198    1.7045    0.0000 C   0  0  0  0  0  0  0  0  0  0  0  0
   -6.3526    2.0164    0.0000 C   0  0  0  0  0  0  0  0  0  0  0  0
   -0.7500   -1.2990    0.0000 C   0  0  0  0  0  0  0  0  0  0  0  0
   -1.5000   -2.5981    0.0000 O   0  0  0  0  0  0  0  0  0  0  0  0
    0.7500   -1.2990    0.0000 N   0  0  0  0  0  0  0  0  0  0  0  0
  1  2  1  0
  2  3  2  0
  3  4  1  0
  4  5  2  0
  5  6  1  0
  6  7  2  0
  7  8  1  0
  8  9  2  0
  9 10  1  0
 10 11  1  0
 11 12  2  0
 12 13  1  0
 13 14  2  0
 14 15  1  0
 15 16  2  0
 15 17  1  0
 17 18  1  0
 18 19  2  0
 19 20  1  0
 20 21  2  0
 21 22  1  0
 22 23  1  0
 23 24  2  0
 24 25  1  0
 25 26  2  0
 26 27  1  0
 27 28  2  0
 14 29  1  0
 29 30  2  0
 30 31  1  0
 31 32  2  0
 32 33  1  0
 33 34  2  0
 34 35  1  0
 35 36  2  0
 35 37  1  0
 37 38  1  0
 38 39  2  0
 39 40  1  0
 40 41  2  0
 41 42  1  0
 42 43  1  0
 43 44  2  0
 44 45  1  0
 45 46  2  0
 46 47  1  0
 47 48  1  0
 48 49  2  0
 49 50  1  0
 50 51  2  0
 51 52  1  0
 52 53  2  0
 34 54  1  0
 54 55  2  0
  5 56  1  0
 56 57  2  0
 56 58  1  0
 58  2  1  0
 10  6  1  0
 30 11  1  0
 55 31  1  0
 22 18  1  0
 28 23  1  0
 42 38  1  0
 47 43  1  0
 53 48  1  0
M  END
>  <Title>  (1267) 
idABWSgen8

$$$$

     RDKit          2D

 50 57  0  0  0  0  0  0  0  0999 V2000
    3.9387   13.2032    0.0000 C   0  0  0  0  0  0  0  0  0  0  0  0
    3.0034   12.0305    0.0000 C   0  0  0  0  0  0  0  0  0  0  0  0
    1.5202   12.2540    0.0000 O   0  0  0  0  0  0  0  0  0  0  0  0
    3.5515   10.6341    0.0000 O   0  0  0  0  0  0  0  0  0  0  0  0
    2.6162    9.4614    0.0000 C   0  0  0  0  0  0  0  0  0  0  0  0
    1.1330    9.6850    0.0000 C   0  0  0  0  0  0  0  0  0  0  0  0
    0.1977    8.5122    0.0000 C   0  0  0  0  0  0  0  0  0  0  0  0
    0.7458    7.1159    0.0000 C   0  0  0  0  0  0  0  0  0  0  0  0
   -0.1895    5.9432    0.0000 C   0  0  0  0  0  0  0  0  0  0  0  0
   -1.6880    6.0104    0.0000 N   0  0  0  0  0  0  0  0  0  0  0  0
   -2.2150    4.6061    0.0000 N   0  0  0  0  0  0  0  0  0  0  0  0
   -1.0423    3.6709    0.0000 N   0  0  0  0  0  0  0  0  0  0  0  0
    0.2096    4.4972    0.0000 N   0  0  0  0  0  0  0  0  0  0  0  0
    1.6139    3.9701    0.0000 C   0  0  0  0  0  0  0  0  0  0  0  0
    2.8658    4.7965    0.0000 C   0  0  0  0  0  0  0  0  0  0  0  0
    4.0385    3.8613    0.0000 N   0  0  0  0  0  0  0  0  0  0  0  0
    3.5115    2.4569    0.0000 N   0  0  0  0  0  0  0  0  0  0  0  0
    2.0130    2.5242    0.0000 N   0  0  0  0  0  0  0  0  0  0  0  0
    1.0777    1.3515    0.0000 C   0  0  0  0  0  0  0  0  0  0  0  0
   -0.3846    1.6852    0.0000 C   0  0  0  0  0  0  0  0  0  0  0  0
   -1.5574    0.7500    0.0000 C   0  0  0  0  0  0  0  0  0  0  0  0
   -1.5574   -0.7500    0.0000 N   0  0  0  0  0  0  0  0  0  0  0  0
   -0.3846   -1.6852    0.0000 N   0  0  0  0  0  0  0  0  0  0  0  0
    1.0777   -1.3515    0.0000 N   0  0  0  0  0  0  0  0  0  0  0  0
    1.7286    0.0000    0.0000 N   0  0  0  0  0  0  0  0  0  0  0  0
    3.2286    0.0000    0.0000 C   0  0  0  0  0  0  0  0  0  0  0  0
    3.9786    1.2990    0.0000 C   0  0  0  0  0  0  0  0  0  0  0  0
    5.4786    1.2990    0.0000 C   0  0  0  0  0  0  0  0  0  0  0  0
    6.2286    0.0000    0.0000 C   0  0  0  0  0  0  0  0  0  0  0  0
    7.7286    0.0000    0.0000 C   0  0  0  0  0  0  0  0  0  0  0  0
    8.6103   -1.2135    0.0000 N   0  0  0  0  0  0  0  0  0  0  0  0
   10.0368   -0.7500    0.0000 N   0  0  0  0  0  0  0  0  0  0  0  0
   10.0368    0.7500    0.0000 N   0  0  0  0  0  0  0  0  0  0  0  0
    8.6103    1.2135    0.0000 N   0  0  0  0  0  0  0  0  0  0  0  0
    8.1467    2.6401    0.0000 C   0  0  0  0  0  0  0  0  0  0  0  0
    6.6795    2.9520    0.0000 C   0  0  0  0  0  0  0  0  0  0  0  0
    6.2160    4.3786    0.0000 C   0  0  0  0  0  0  0  0  0  0  0  0
    7.2197    5.4933    0.0000 C   0  0  0  0  0  0  0  0  0  0  0  0
    8.6869    5.1814    0.0000 C   0  0  0  0  0  0  0  0  0  0  0  0
    9.1504    3.7548    0.0000 C   0  0  0  0  0  0  0  0  0  0  0  0
    5.4786   -1.2990    0.0000 C   0  0  0  0  0  0  0  0  0  0  0  0
    3.9786   -1.2990    0.0000 C   0  0  0  0  0  0  0  0  0  0  0  0
    2.2290    6.8923    0.0000 C   0  0  0  0  0  0  0  0  0  0  0  0
    3.1642    8.0651    0.0000 C   0  0  0  0  0  0  0  0  0  0  0  0
    4.6475    7.8415    0.0000 N   0  0  0  0  0  0  0  0  0  0  0  0
    5.3384    6.5101    0.0000 C   0  0  0  0  0  0  0  0  0  0  0  0
    6.8182    6.7559    0.0000 C   0  0  0  0  0  0  0  0  0  0  0  0
    7.0417    8.2391    0.0000 C   0  0  0  0  0  0  0  0  0  0  0  0
    5.7002    8.9101    0.0000 C   0  0  0  0  0  0  0  0  0  0  0  0
    5.4545   10.3898    0.0000 C   0  0  0  0  0  0  0  0  0  0  0  0
  1  2  1  0
  2  3  2  0
  2  4  1  0
  4  5  1  0
  5  6  2  0
  6  7  1  0
  7  8  2  0
  8  9  1  0
  9 10  2  0
 10 11  1  0
 11 12  2  0
 12 13  1  0
 13 14  1  0
 14 15  2  0
 15 16  1  0
 16 17  2  0
 17 18  1  0
 18 19  1  0
 19 20  2  0
 20 21  1  0
 21 22  2  0
 22 23  1  0
 23 24  2  0
 24 25  1  0
 25 26  1  0
 26 27  2  0
 27 28  1  0
 28 29  2  0
 29 30  1  0
 30 31  2  0
 31 32  1  0
 32 33  2  0
 33 34  1  0
 34 35  1  0
 35 36  2  0
 36 37  1  0
 37 38  2  0
 38 39  1  0
 39 40  2  0
 29 41  1  0
 41 42  2  0
  8 43  1  0
 43 44  2  0
 44 45  1  0
 45 46  1  0
 46 47  2  0
 47 48  1  0
 48 49  2  0
 49 50  1  0
 44  5  1  0
 49 45  1  0
 13  9  1  0
 18 14  1  0
 25 19  1  0
 42 26  1  0
 34 30  1  0
 40 35  1  0
M  END
>  <Title>  (1268) 
idABWTgen8

$$$$

     RDKit          2D

 45 51  0  0  0  0  0  0  0  0999 V2000
    3.0000    0.0000    0.0000 C   0  0  0  0  0  0  0  0  0  0  0  0
    1.5000    0.0000    0.0000 C   0  0  0  0  0  0  0  0  0  0  0  0
    0.7500   -1.2990    0.0000 C   0  0  0  0  0  0  0  0  0  0  0  0
   -0.7500   -1.2990    0.0000 C   0  0  0  0  0  0  0  0  0  0  0  0
   -1.5000    0.0000    0.0000 C   0  0  0  0  0  0  0  0  0  0  0  0
   -3.0000    0.0000    0.0000 C   0  0  0  0  0  0  0  0  0  0  0  0
   -3.8817   -1.2135    0.0000 N   0  0  0  0  0  0  0  0  0  0  0  0
   -5.3083   -0.7500    0.0000 N   0  0  0  0  0  0  0  0  0  0  0  0
   -5.3083    0.7500    0.0000 N   0  0  0  0  0  0  0  0  0  0  0  0
   -3.8817    1.2135    0.0000 N   0  0  0  0  0  0  0  0  0  0  0  0
   -3.4182    2.6401    0.0000 C   0  0  0  0  0  0  0  0  0  0  0  0
   -1.9509    2.9520    0.0000 C   0  0  0  0  0  0  0  0  0  0  0  0
   -1.4874    4.3786    0.0000 C   0  0  0  0  0  0  0  0  0  0  0  0
   -2.4911    5.4933    0.0000 C   0  0  0  0  0  0  0  0  0  0  0  0
   -2.0276    6.9199    0.0000 C   0  0  0  0  0  0  0  0  0  0  0  0
   -3.0313    8.0346    0.0000 O   0  0  0  0  0  0  0  0  0  0  0  0
   -0.5604    7.2317    0.0000 N   0  0  0  0  0  0  0  0  0  0  0  0
   -0.0968    8.6583    0.0000 C   0  0  0  0  0  0  0  0  0  0  0  0
   -0.9785    9.8718    0.0000 N   0  0  0  0  0  0  0  0  0  0  0  0
   -0.0968   11.0854    0.0000 N   0  0  0  0  0  0  0  0  0  0  0  0
    1.3298   10.6218    0.0000 N   0  0  0  0  0  0  0  0  0  0  0  0
    1.3298    9.1218    0.0000 N   0  0  0  0  0  0  0  0  0  0  0  0
    2.5433    8.2402    0.0000 C   0  0  0  0  0  0  0  0  0  0  0  0
    2.5433    6.7402    0.0000 N   0  0  0  0  0  0  0  0  0  0  0  0
    3.9699    6.2766    0.0000 N   0  0  0  0  0  0  0  0  0  0  0  0
    4.8515    7.4902    0.0000 N   0  0  0  0  0  0  0  0  0  0  0  0
    3.9699    8.7037    0.0000 N   0  0  0  0  0  0  0  0  0  0  0  0
    4.4334   10.1303    0.0000 C   0  0  0  0  0  0  0  0  0  0  0  0
    5.9006   10.4421    0.0000 C   0  0  0  0  0  0  0  0  0  0  0  0
    6.3641   11.8687    0.0000 C   0  0  0  0  0  0  0  0  0  0  0  0
    5.3604   12.9834    0.0000 C   0  0  0  0  0  0  0  0  0  0  0  0
    3.8932   12.6716    0.0000 C   0  0  0  0  0  0  0  0  0  0  0  0
    3.4297   11.2450    0.0000 C   0  0  0  0  0  0  0  0  0  0  0  0
   -3.9583    5.1814    0.0000 C   0  0  0  0  0  0  0  0  0  0  0  0
   -4.4218    3.7548    0.0000 C   0  0  0  0  0  0  0  0  0  0  0  0
   -5.8891    3.4430    0.0000 C   0  0  0  0  0  0  0  0  0  0  0  0
   -6.8928    4.5577    0.0000 C   0  0  0  0  0  0  0  0  0  0  0  0
   -8.3600    4.2458    0.0000 C   0  0  0  0  0  0  0  0  0  0  0  0
   -8.8235    2.8192    0.0000 C   0  0  0  0  0  0  0  0  0  0  0  0
  -10.2907    2.5074    0.0000 C   0  0  0  0  0  0  0  0  0  0  0  0
   -7.8198    1.7045    0.0000 C   0  0  0  0  0  0  0  0  0  0  0  0
   -8.2833    0.2779    0.0000 O   0  0  0  0  0  0  0  0  0  0  0  0
   -6.3526    2.0164    0.0000 N   0  0  0  0  0  0  0  0  0  0  0  0
   -0.7500    1.2990    0.0000 C   0  0  0  0  0  0  0  0  0  0  0  0
    0.7500    1.2990    0.0000 C   0  0  0  0  0  0  0  0  0  0  0  0
  1  2  1  0
  2  3  2  0
  3  4  1  0
  4  5  2  0
  5  6  1  0
  6  7  2  0
  7  8  1  0
  8  9  2  0
  9 10  1  0
 10 11  1  0
 11 12  2  0
 12 13  1  0
 13 14  2  0
 14 15  1  0
 15 16  2  0
 15 17  1  0
 17 18  1  0
 18 19  2  0
 19 20  1  0
 20 21  2  0
 21 22  1  0
 22 23  1  0
 23 24  2  0
 24 25  1  0
 25 26  2  0
 26 27  1  0
 27 28  1  0
 28 29  2  0
 29 30  1  0
 30 31  2  0
 31 32  1  0
 32 33  2  0
 14 34  1  0
 34 35  2  0
 35 36  1  0
 36 37  2  0
 37 38  1  0
 38 39  2  0
 39 40  1  0
 39 41  1  0
 41 42  2  0
 41 43  1  0
  5 44  1  0
 44 45  2  0
 45  2  1  0
 10  6  1  0
 35 11  1  0
 43 36  1  0
 22 18  1  0
 27 23  1  0
 33 28  1  0
M  END
>  <Title>  (1269) 
idABWUgen8

$$$$

     RDKit          2D

 39 43  0  0  0  0  0  0  0  0999 V2000
   12.2875   -5.3137    0.0000 C   0  0  0  0  0  0  0  0  0  0  0  0
   10.7881   -5.3529    0.0000 O   0  0  0  0  0  0  0  0  0  0  0  0
   10.0043   -4.0740    0.0000 C   0  0  0  0  0  0  0  0  0  0  0  0
    8.5228   -4.3086    0.0000 C   0  0  0  0  0  0  0  0  0  0  0  0
    7.3093   -3.4269    0.0000 C   0  0  0  0  0  0  0  0  0  0  0  0
    7.0746   -1.9454    0.0000 C   0  0  0  0  0  0  0  0  0  0  0  0
    5.6160   -1.5952    0.0000 C   0  0  0  0  0  0  0  0  0  0  0  0
    5.0420   -0.2094    0.0000 N   0  0  0  0  0  0  0  0  0  0  0  0
    3.5466   -0.3271    0.0000 N   0  0  0  0  0  0  0  0  0  0  0  0
    3.1965   -1.7857    0.0000 N   0  0  0  0  0  0  0  0  0  0  0  0
    4.4754   -2.5694    0.0000 N   0  0  0  0  0  0  0  0  0  0  0  0
    4.5931   -4.0648    0.0000 C   0  0  0  0  0  0  0  0  0  0  0  0
    5.8721   -4.8485    0.0000 C   0  0  0  0  0  0  0  0  0  0  0  0
    5.5219   -6.3071    0.0000 C   0  0  0  0  0  0  0  0  0  0  0  0
    4.0265   -6.4248    0.0000 C   0  0  0  0  0  0  0  0  0  0  0  0
    3.2428   -7.7037    0.0000 C   0  0  0  0  0  0  0  0  0  0  0  0
    1.7433   -7.6645    0.0000 O   0  0  0  0  0  0  0  0  0  0  0  0
    3.9585   -9.0220    0.0000 N   0  0  0  0  0  0  0  0  0  0  0  0
    3.1748  -10.3009    0.0000 O   0  0  0  0  0  0  0  0  0  0  0  0
    3.4525   -5.0390    0.0000 C   0  0  0  0  0  0  0  0  0  0  0  0
    1.9940   -4.6888    0.0000 C   0  0  0  0  0  0  0  0  0  0  0  0
    0.9614   -5.7769    0.0000 C   0  0  0  0  0  0  0  0  0  0  0  0
   -0.4971   -5.4267    0.0000 C   0  0  0  0  0  0  0  0  0  0  0  0
   -0.9231   -3.9885    0.0000 C   0  0  0  0  0  0  0  0  0  0  0  0
   -2.3817   -3.6383    0.0000 C   0  0  0  0  0  0  0  0  0  0  0  0
   -2.8077   -2.2001    0.0000 O   0  0  0  0  0  0  0  0  0  0  0  0
   -3.4142   -4.7264    0.0000 N   0  0  0  0  0  0  0  0  0  0  0  0
   -4.8728   -4.3762    0.0000 O   0  0  0  0  0  0  0  0  0  0  0  0
    0.1094   -2.9004    0.0000 N   0  0  0  0  0  0  0  0  0  0  0  0
    1.5679   -3.2506    0.0000 C   0  0  0  0  0  0  0  0  0  0  0  0
    2.2326   -2.0756    0.0000 O   0  0  0  0  0  0  0  0  0  0  0  0
    7.9563   -0.7319    0.0000 C   0  0  0  0  0  0  0  0  0  0  0  0
    7.0123    0.4338    0.0000 C   0  0  0  0  0  0  0  0  0  0  0  0
    7.5499    1.8342    0.0000 C   0  0  0  0  0  0  0  0  0  0  0  0
    9.0314    2.0688    0.0000 C   0  0  0  0  0  0  0  0  0  0  0  0
    9.9754    0.9031    0.0000 C   0  0  0  0  0  0  0  0  0  0  0  0
    9.4378   -0.4972    0.0000 C   0  0  0  0  0  0  0  0  0  0  0  0
   10.6513   -1.3789    0.0000 C   0  0  0  0  0  0  0  0  0  0  0  0
   10.8860   -2.8605    0.0000 C   0  0  0  0  0  0  0  0  0  0  0  0
  1  2  1  0
  2  3  1  0
  3  4  2  0
  4  5  1  0
  5  6  2  0
  6  7  1  0
  7  8  2  0
  8  9  1  0
  9 10  2  0
 10 11  1  0
 11 12  1  0
 12 13  2  0
 13 14  1  0
 14 15  2  0
 15 16  1  0
 16 17  2  0
 16 18  1  0
 18 19  1  0
 15 20  1  0
 20 21  1  0
 21 22  2  0
 22 23  1  0
 23 24  2  0
 24 25  1  0
 25 26  2  0
 25 27  1  0
 27 28  1  0
 24 29  1  0
 29 30  1  0
 30 31  2  0
  6 32  1  0
 32 33  2  0
 33 34  1  0
 34 35  2  0
 35 36  1  0
 36 37  2  0
 37 38  1  0
 38 39  1  0
 39  3  1  0
 11  7  1  0
 20 12  1  0
 30 21  1  0
 37 32  1  0
M  END
>  <Title>  (1270) 
idABWVgen8

$$$$

     RDKit          2D

 25 25  0  0  0  0  0  0  0  0999 V2000
    7.7580   -1.2990    0.0000 O   0  0  0  0  0  0  0  0  0  0  0  0
    7.0080   -0.0000    0.0000 C   0  0  0  0  0  0  0  0  0  0  0  0
    5.5080    0.0000    0.0000 C   0  0  0  0  0  0  0  0  0  0  0  0
    5.3037    1.4860    0.0000 C   0  0  0  0  0  0  0  0  0  0  0  0
    4.7061    2.8618    0.0000 C   0  0  0  0  0  0  0  0  0  0  0  0
    3.7595    4.0254    0.0000 C   0  0  0  0  0  0  0  0  0  0  0  0
    2.5340    4.8904    0.0000 C   0  0  0  0  0  0  0  0  0  0  0  0
    1.1206    5.3928    0.0000 C   0  0  0  0  0  0  0  0  0  0  0  0
   -0.3759    5.4951    0.0000 C   0  0  0  0  0  0  0  0  0  0  0  0
   -1.8445    5.1899    0.0000 C   0  0  0  0  0  0  0  0  0  0  0  0
   -3.1763    4.4998    0.0000 C   0  0  0  0  0  0  0  0  0  0  0  0
   -4.2726    3.4760    0.0000 C   0  0  0  0  0  0  0  0  0  0  0  0
   -5.0520    2.1944    0.0000 C   0  0  0  0  0  0  0  0  0  0  0  0
   -5.4567    0.7500    0.0000 C   0  0  0  0  0  0  0  0  0  0  0  0
   -5.4567   -0.7500    0.0000 C   0  0  0  0  0  0  0  0  0  0  0  0
   -5.0520   -2.1944    0.0000 C   0  0  0  0  0  0  0  0  0  0  0  0
   -4.2726   -3.4760    0.0000 C   0  0  0  0  0  0  0  0  0  0  0  0
   -3.1763   -4.4998    0.0000 C   0  0  0  0  0  0  0  0  0  0  0  0
   -1.8445   -5.1899    0.0000 C   0  0  0  0  0  0  0  0  0  0  0  0
   -0.3759   -5.4951    0.0000 C   0  0  0  0  0  0  0  0  0  0  0  0
    1.1206   -5.3928    0.0000 C   0  0  0  0  0  0  0  0  0  0  0  0
    2.5340   -4.8904    0.0000 C   0  0  0  0  0  0  0  0  0  0  0  0
    3.7595   -4.0254    0.0000 C   0  0  0  0  0  0  0  0  0  0  0  0
    4.7061   -2.8618    0.0000 C   0  0  0  0  0  0  0  0  0  0  0  0
    5.3037   -1.4860    0.0000 C   0  0  0  0  0  0  0  0  0  0  0  0
  1  2  1  0
  2  3  1  0
  3  4  2  0
  4  5  1  0
  5  6  2  0
  6  7  1  0
  7  8  2  0
  8  9  1  0
  9 10  2  0
 10 11  1  0
 11 12  2  0
 12 13  1  0
 13 14  2  0
 14 15  1  0
 15 16  2  0
 16 17  1  0
 17 18  2  0
 18 19  1  0
 19 20  2  0
 20 21  1  0
 21 22  1  0
 22 23  1  0
 23 24  1  0
 24 25  1  0
 25  3  1  0
M  END
>  <Title>  (1271) 
idABWWgen8

$$$$

     RDKit          2D

 44 49  0  0  0  0  0  0  0  0999 V2000
    4.4429   -1.2990    0.0000 C   0  0  0  0  0  0  0  0  0  0  0  0
    3.6929    0.0000    0.0000 O   0  0  0  0  0  0  0  0  0  0  0  0
    2.1929    0.0000    0.0000 C   0  0  0  0  0  0  0  0  0  0  0  0
    1.6798    1.4095    0.0000 C   0  0  0  0  0  0  0  0  0  0  0  0
    0.3808    2.1595    0.0000 C   0  0  0  0  0  0  0  0  0  0  0  0
   -1.0964    1.8991    0.0000 C   0  0  0  0  0  0  0  0  0  0  0  0
   -1.8464    3.1981    0.0000 C   0  0  0  0  0  0  0  0  0  0  0  0
   -3.3382    3.3549    0.0000 N   0  0  0  0  0  0  0  0  0  0  0  0
   -3.6501    4.8221    0.0000 N   0  0  0  0  0  0  0  0  0  0  0  0
   -2.3510    5.5721    0.0000 N   0  0  0  0  0  0  0  0  0  0  0  0
   -1.2363    4.5684    0.0000 N   0  0  0  0  0  0  0  0  0  0  0  0
    0.2309    4.8803    0.0000 C   0  0  0  0  0  0  0  0  0  0  0  0
    1.2346    3.7656    0.0000 C   0  0  0  0  0  0  0  0  0  0  0  0
    2.7018    4.0774    0.0000 C   0  0  0  0  0  0  0  0  0  0  0  0
    3.1653    5.5040    0.0000 C   0  0  0  0  0  0  0  0  0  0  0  0
    4.6326    5.8159    0.0000 C   0  0  0  0  0  0  0  0  0  0  0  0
    5.0961    7.2425    0.0000 O   0  0  0  0  0  0  0  0  0  0  0  0
    5.6363    4.7012    0.0000 N   0  0  0  0  0  0  0  0  0  0  0  0
    7.1035    5.0130    0.0000 C   0  0  0  0  0  0  0  0  0  0  0  0
    7.7136    6.3834    0.0000 N   0  0  0  0  0  0  0  0  0  0  0  0
    9.2054    6.2266    0.0000 N   0  0  0  0  0  0  0  0  0  0  0  0
    9.5172    4.7593    0.0000 N   0  0  0  0  0  0  0  0  0  0  0  0
    8.2182    4.0093    0.0000 N   0  0  0  0  0  0  0  0  0  0  0  0
    8.0614    2.5176    0.0000 C   0  0  0  0  0  0  0  0  0  0  0  0
    6.6911    1.9075    0.0000 C   0  0  0  0  0  0  0  0  0  0  0  0
    6.5343    0.4157    0.0000 C   0  0  0  0  0  0  0  0  0  0  0  0
    7.7478   -0.4660    0.0000 C   0  0  0  0  0  0  0  0  0  0  0  0
    9.1181    0.1441    0.0000 C   0  0  0  0  0  0  0  0  0  0  0  0
    9.2749    1.6359    0.0000 C   0  0  0  0  0  0  0  0  0  0  0  0
    2.1616    6.6187    0.0000 C   0  0  0  0  0  0  0  0  0  0  0  0
    0.6944    6.3069    0.0000 C   0  0  0  0  0  0  0  0  0  0  0  0
   -0.3093    7.4216    0.0000 C   0  0  0  0  0  0  0  0  0  0  0  0
   -1.8011    7.2648    0.0000 C   0  0  0  0  0  0  0  0  0  0  0  0
   -2.4112    8.6351    0.0000 C   0  0  0  0  0  0  0  0  0  0  0  0
   -1.2964    9.6388    0.0000 C   0  0  0  0  0  0  0  0  0  0  0  0
   -1.4532   11.1306    0.0000 C   0  0  0  0  0  0  0  0  0  0  0  0
    0.0026    8.8888    0.0000 C   0  0  0  0  0  0  0  0  0  0  0  0
    1.3729    9.4989    0.0000 O   0  0  0  0  0  0  0  0  0  0  0  0
   -2.0606    0.7500    0.0000 N   0  0  0  0  0  0  0  0  0  0  0  0
   -2.0606   -0.7500    0.0000 C   0  0  0  0  0  0  0  0  0  0  0  0
   -1.0964   -1.8991    0.0000 C   0  0  0  0  0  0  0  0  0  0  0  0
   -1.8464   -3.1981    0.0000 O   0  0  0  0  0  0  0  0  0  0  0  0
    0.3808   -2.1595    0.0000 C   0  0  0  0  0  0  0  0  0  0  0  0
    1.6798   -1.4095    0.0000 C   0  0  0  0  0  0  0  0  0  0  0  0
  1  2  1  0
  2  3  1  0
  3  4  2  0
  4  5  1  0
  5  6  2  0
  6  7  1  0
  7  8  2  0
  8  9  1  0
  9 10  2  0
 10 11  1  0
 11 12  1  0
 12 13  2  0
 13 14  1  0
 14 15  2  0
 15 16  1  0
 16 17  2  0
 16 18  1  0
 18 19  1  0
 19 20  2  0
 20 21  1  0
 21 22  2  0
 22 23  1  0
 23 24  1  0
 24 25  2  0
 25 26  1  0
 26 27  2  0
 27 28  1  0
 28 29  2  0
 15 30  1  0
 30 31  2  0
 31 32  1  0
 32 33  2  0
 33 34  1  0
 34 35  2  0
 35 36  1  0
 35 37  1  0
 37 38  2  0
  6 39  1  0
 39 40  1  0
 40 41  1  0
 41 42  1  0
 41 43  1  0
 43 44  1  0
 44  3  1  0
 11  7  1  0
 31 12  1  0
 37 32  1  0
 23 19  1  0
 29 24  1  0
M  END
>  <Title>  (1272) 
idABWXgen8

$$$$

     RDKit          2D

 32 32  0  0  0  0  0  0  0  0999 V2000
    9.4251   -1.2990    0.0000 C   0  0  0  0  0  0  0  0  0  0  0  0
    8.6751   -0.0000    0.0000 C   0  0  0  0  0  0  0  0  0  0  0  0
    7.1751    0.0000    0.0000 C   0  0  0  0  0  0  0  0  0  0  0  0
    7.0183   -1.4918    0.0000 C   0  0  0  0  0  0  0  0  0  0  0  0
    6.5548   -2.9184    0.0000 C   0  0  0  0  0  0  0  0  0  0  0  0
    5.8048   -4.2174    0.0000 C   0  0  0  0  0  0  0  0  0  0  0  0
    4.8011   -5.3321    0.0000 C   0  0  0  0  0  0  0  0  0  0  0  0
    3.5875   -6.2138    0.0000 C   0  0  0  0  0  0  0  0  0  0  0  0
    2.2172   -6.8239    0.0000 C   0  0  0  0  0  0  0  0  0  0  0  0
    0.7500   -7.1358    0.0000 C   0  0  0  0  0  0  0  0  0  0  0  0
   -0.7500   -7.1358    0.0000 C   0  0  0  0  0  0  0  0  0  0  0  0
   -2.2172   -6.8239    0.0000 C   0  0  0  0  0  0  0  0  0  0  0  0
   -3.5875   -6.2138    0.0000 C   0  0  0  0  0  0  0  0  0  0  0  0
   -4.8011   -5.3321    0.0000 C   0  0  0  0  0  0  0  0  0  0  0  0
   -5.8048   -4.2174    0.0000 C   0  0  0  0  0  0  0  0  0  0  0  0
   -6.5548   -2.9184    0.0000 C   0  0  0  0  0  0  0  0  0  0  0  0
   -7.0183   -1.4918    0.0000 C   0  0  0  0  0  0  0  0  0  0  0  0
   -7.1751    0.0000    0.0000 C   0  0  0  0  0  0  0  0  0  0  0  0
   -7.0183    1.4918    0.0000 C   0  0  0  0  0  0  0  0  0  0  0  0
   -6.5548    2.9184    0.0000 C   0  0  0  0  0  0  0  0  0  0  0  0
   -5.8048    4.2174    0.0000 C   0  0  0  0  0  0  0  0  0  0  0  0
   -4.8011    5.3321    0.0000 C   0  0  0  0  0  0  0  0  0  0  0  0
   -3.5875    6.2138    0.0000 C   0  0  0  0  0  0  0  0  0  0  0  0
   -2.2172    6.8239    0.0000 C   0  0  0  0  0  0  0  0  0  0  0  0
   -0.7500    7.1358    0.0000 C   0  0  0  0  0  0  0  0  0  0  0  0
    0.7500    7.1358    0.0000 C   0  0  0  0  0  0  0  0  0  0  0  0
    2.2172    6.8239    0.0000 C   0  0  0  0  0  0  0  0  0  0  0  0
    3.5875    6.2138    0.0000 C   0  0  0  0  0  0  0  0  0  0  0  0
    4.8011    5.3321    0.0000 C   0  0  0  0  0  0  0  0  0  0  0  0
    5.8048    4.2174    0.0000 C   0  0  0  0  0  0  0  0  0  0  0  0
    6.5548    2.9184    0.0000 C   0  0  0  0  0  0  0  0  0  0  0  0
    7.0183    1.4918    0.0000 C   0  0  0  0  0  0  0  0  0  0  0  0
  1  2  1  0
  2  3  1  0
  3  4  2  0
  4  5  1  0
  5  6  2  0
  6  7  1  0
  7  8  2  0
  8  9  1  0
  9 10  2  0
 10 11  1  0
 11 12  2  0
 12 13  1  0
 13 14  2  0
 14 15  1  0
 15 16  2  0
 16 17  1  0
 17 18  2  0
 18 19  1  0
 19 20  2  0
 20 21  1  0
 21 22  2  0
 22 23  1  0
 23 24  2  0
 24 25  1  0
 25 26  2  0
 26 27  1  0
 27 28  2  0
 28 29  1  0
 29 30  2  0
 30 31  1  0
 31 32  2  0
 32  3  1  0
M  END
>  <Title>  (1273) 
idABWYgen8

$$$$

     RDKit          2D

 41 46  0  0  0  0  0  0  0  0999 V2000
    1.2990   -4.2098    0.0000 C   0  0  0  0  0  0  0  0  0  0  0  0
   -0.0000   -3.4598    0.0000 O   0  0  0  0  0  0  0  0  0  0  0  0
   -0.0000   -1.9598    0.0000 C   0  0  0  0  0  0  0  0  0  0  0  0
    1.3858   -1.3858    0.0000 C   0  0  0  0  0  0  0  0  0  0  0  0
    1.9598   -0.0000    0.0000 C   0  0  0  0  0  0  0  0  0  0  0  0
    1.3858    1.3858    0.0000 C   0  0  0  0  0  0  0  0  0  0  0  0
    0.0000    1.9598    0.0000 C   0  0  0  0  0  0  0  0  0  0  0  0
   -1.3858    1.3858    0.0000 C   0  0  0  0  0  0  0  0  0  0  0  0
   -2.4465    2.4465    0.0000 C   0  0  0  0  0  0  0  0  0  0  0  0
   -3.8954    2.0583    0.0000 O   0  0  0  0  0  0  0  0  0  0  0  0
   -2.0583    3.8954    0.0000 O   0  0  0  0  0  0  0  0  0  0  0  0
   -3.1189    4.9560    0.0000 C   0  0  0  0  0  0  0  0  0  0  0  0
   -4.6004    4.7214    0.0000 N   0  0  0  0  0  0  0  0  0  0  0  0
   -5.2814    6.0579    0.0000 N   0  0  0  0  0  0  0  0  0  0  0  0
   -4.2208    7.1185    0.0000 N   0  0  0  0  0  0  0  0  0  0  0  0
   -2.8843    6.4376    0.0000 N   0  0  0  0  0  0  0  0  0  0  0  0
   -1.5477    7.1185    0.0000 C   0  0  0  0  0  0  0  0  0  0  0  0
   -1.3131    8.6001    0.0000 C   0  0  0  0  0  0  0  0  0  0  0  0
    0.1684    8.8347    0.0000 C   0  0  0  0  0  0  0  0  0  0  0  0
    0.8494    7.4982    0.0000 C   0  0  0  0  0  0  0  0  0  0  0  0
    2.3310    7.2636    0.0000 C   0  0  0  0  0  0  0  0  0  0  0  0
    3.3916    8.3242    0.0000 N   0  0  0  0  0  0  0  0  0  0  0  0
    4.7281    7.6432    0.0000 N   0  0  0  0  0  0  0  0  0  0  0  0
    4.4935    6.1617    0.0000 N   0  0  0  0  0  0  0  0  0  0  0  0
    3.0119    5.9271    0.0000 N   0  0  0  0  0  0  0  0  0  0  0  0
    2.3310    4.5905    0.0000 C   0  0  0  0  0  0  0  0  0  0  0  0
    0.8494    4.3559    0.0000 N   0  0  0  0  0  0  0  0  0  0  0  0
    0.6148    2.8744    0.0000 N   0  0  0  0  0  0  0  0  0  0  0  0
    1.9513    2.1934    0.0000 N   0  0  0  0  0  0  0  0  0  0  0  0
    3.0119    3.2540    0.0000 N   0  0  0  0  0  0  0  0  0  0  0  0
    4.4935    3.0194    0.0000 C   0  0  0  0  0  0  0  0  0  0  0  0
    5.4375    4.1851    0.0000 C   0  0  0  0  0  0  0  0  0  0  0  0
    6.9190    3.9505    0.0000 C   0  0  0  0  0  0  0  0  0  0  0  0
    7.4565    2.5501    0.0000 C   0  0  0  0  0  0  0  0  0  0  0  0
    6.5126    1.3844    0.0000 C   0  0  0  0  0  0  0  0  0  0  0  0
    5.0310    1.6190    0.0000 C   0  0  0  0  0  0  0  0  0  0  0  0
   -0.2112    6.4376    0.0000 C   0  0  0  0  0  0  0  0  0  0  0  0
    0.0234    4.9560    0.0000 O   0  0  0  0  0  0  0  0  0  0  0  0
   -1.9598    0.0000    0.0000 C   0  0  0  0  0  0  0  0  0  0  0  0
   -3.4598    0.0000    0.0000 O   0  0  0  0  0  0  0  0  0  0  0  0
   -1.3858   -1.3858    0.0000 N   0  0  0  0  0  0  0  0  0  0  0  0
  1  2  1  0
  2  3  1  0
  3  4  2  0
  4  5  1  0
  5  6  2  0
  6  7  1  0
  7  8  2  0
  8  9  1  0
  9 10  2  0
  9 11  1  0
 11 12  1  0
 12 13  2  0
 13 14  1  0
 14 15  2  0
 15 16  1  0
 16 17  1  0
 17 18  2  0
 18 19  1  0
 19 20  2  0
 20 21  1  0
 21 22  2  0
 22 23  1  0
 23 24  2  0
 24 25  1  0
 25 26  1  0
 26 27  2  0
 27 28  1  0
 28 29  2  0
 29 30  1  0
 30 31  1  0
 31 32  2  0
 32 33  1  0
 33 34  2  0
 34 35  1  0
 35 36  2  0
 20 37  1  0
 37 38  2  0
  8 39  1  0
 39 40  2  0
 39 41  1  0
 41  3  1  0
 16 12  1  0
 37 17  1  0
 25 21  1  0
 30 26  1  0
 36 31  1  0
M  END
>  <Title>  (1274) 
idABWZgen8

$$$$

     RDKit          2D

 25 27  0  0  0  0  0  0  0  0999 V2000
    3.7500   -1.2990    0.0000 C   0  0  0  0  0  0  0  0  0  0  0  0
    3.0000    0.0000    0.0000 O   0  0  0  0  0  0  0  0  0  0  0  0
    1.5000    0.0000    0.0000 C   0  0  0  0  0  0  0  0  0  0  0  0
    0.7500   -1.2990    0.0000 C   0  0  0  0  0  0  0  0  0  0  0  0
   -0.7500   -1.2990    0.0000 C   0  0  0  0  0  0  0  0  0  0  0  0
   -1.5000    0.0000    0.0000 C   0  0  0  0  0  0  0  0  0  0  0  0
   -3.0000    0.0000    0.0000 C   0  0  0  0  0  0  0  0  0  0  0  0
   -3.8817   -1.2135    0.0000 N   0  0  0  0  0  0  0  0  0  0  0  0
   -5.3083   -0.7500    0.0000 N   0  0  0  0  0  0  0  0  0  0  0  0
   -5.3083    0.7500    0.0000 N   0  0  0  0  0  0  0  0  0  0  0  0
   -3.8817    1.2135    0.0000 N   0  0  0  0  0  0  0  0  0  0  0  0
   -3.4182    2.6401    0.0000 C   0  0  0  0  0  0  0  0  0  0  0  0
   -1.9509    2.9520    0.0000 C   0  0  0  0  0  0  0  0  0  0  0  0
   -1.4874    4.3786    0.0000 C   0  0  0  0  0  0  0  0  0  0  0  0
   -2.4911    5.4933    0.0000 C   0  0  0  0  0  0  0  0  0  0  0  0
   -2.0276    6.9199    0.0000 C   0  0  0  0  0  0  0  0  0  0  0  0
   -3.0313    8.0346    0.0000 O   0  0  0  0  0  0  0  0  0  0  0  0
   -0.5604    7.2317    0.0000 N   0  0  0  0  0  0  0  0  0  0  0  0
   -0.0968    8.6583    0.0000 O   0  0  0  0  0  0  0  0  0  0  0  0
   -3.9583    5.1814    0.0000 N   0  0  0  0  0  0  0  0  0  0  0  0
   -4.4218    3.7548    0.0000 C   0  0  0  0  0  0  0  0  0  0  0  0
   -5.8891    3.4430    0.0000 O   0  0  0  0  0  0  0  0  0  0  0  0
   -0.7500    1.2990    0.0000 C   0  0  0  0  0  0  0  0  0  0  0  0
    0.7500    1.2990    0.0000 C   0  0  0  0  0  0  0  0  0  0  0  0
    1.5000    2.5981    0.0000 O   0  0  0  0  0  0  0  0  0  0  0  0
  1  2  1  0
  2  3  1  0
  3  4  2  0
  4  5  1  0
  5  6  2  0
  6  7  1  0
  7  8  2  0
  8  9  1  0
  9 10  2  0
 10 11  1  0
 11 12  1  0
 12 13  2  0
 13 14  1  0
 14 15  2  0
 15 16  1  0
 16 17  2  0
 16 18  1  0
 18 19  1  0
 15 20  1  0
 20 21  1  0
 21 22  2  0
  6 23  1  0
 23 24  2  0
 24 25  1  0
 24  3  1  0
 11  7  1  0
 21 12  1  0
M  END
>  <Title>  (1275) 
idABXAgen8

$$$$

     RDKit          2D

 27 29  0  0  0  0  0  0  0  0999 V2000
   -7.5184   -1.4453    0.0000 C   0  0  0  0  0  0  0  0  0  0  0  0
   -6.7684   -0.1463    0.0000 C   0  0  0  0  0  0  0  0  0  0  0  0
   -7.6815    1.0438    0.0000 C   0  0  0  0  0  0  0  0  0  0  0  0
   -7.4857    2.5309    0.0000 C   0  0  0  0  0  0  0  0  0  0  0  0
   -6.2957    3.4441    0.0000 N   0  0  0  0  0  0  0  0  0  0  0  0
   -4.8085    3.2483    0.0000 N   0  0  0  0  0  0  0  0  0  0  0  0
   -3.8954    2.0583    0.0000 C   0  0  0  0  0  0  0  0  0  0  0  0
   -2.4465    2.4465    0.0000 N   0  0  0  0  0  0  0  0  0  0  0  0
   -2.0583    3.8954    0.0000 C   0  0  0  0  0  0  0  0  0  0  0  0
   -3.0022    5.0611    0.0000 N   0  0  0  0  0  0  0  0  0  0  0  0
   -2.1853    6.3191    0.0000 N   0  0  0  0  0  0  0  0  0  0  0  0
   -0.7364    5.9309    0.0000 N   0  0  0  0  0  0  0  0  0  0  0  0
   -0.6579    4.4329    0.0000 N   0  0  0  0  0  0  0  0  0  0  0  0
    0.6001    3.6160    0.0000 C   0  0  0  0  0  0  0  0  0  0  0  0
    0.5216    2.1180    0.0000 C   0  0  0  0  0  0  0  0  0  0  0  0
    1.7796    1.3011    0.0000 C   0  0  0  0  0  0  0  0  0  0  0  0
    3.1161    1.9820    0.0000 C   0  0  0  0  0  0  0  0  0  0  0  0
    4.3741    1.1651    0.0000 C   0  0  0  0  0  0  0  0  0  0  0  0
    4.2956   -0.3329    0.0000 O   0  0  0  0  0  0  0  0  0  0  0  0
    5.7107    1.8461    0.0000 N   0  0  0  0  0  0  0  0  0  0  0  0
    6.9687    1.0291    0.0000 O   0  0  0  0  0  0  0  0  0  0  0  0
    3.1946    3.4800    0.0000 C   0  0  0  0  0  0  0  0  0  0  0  0
    4.5312    4.1610    0.0000 C   0  0  0  0  0  0  0  0  0  0  0  0
    1.9366    4.2969    0.0000 C   0  0  0  0  0  0  0  0  0  0  0  0
   -4.0912    0.5711    0.0000 C   0  0  0  0  0  0  0  0  0  0  0  0
   -2.7921   -0.1789    0.0000 O   0  0  0  0  0  0  0  0  0  0  0  0
   -5.2812   -0.3421    0.0000 N   0  0  0  0  0  0  0  0  0  0  0  0
  1  2  1  0
  2  3  2  0
  3  4  1  0
  4  5  2  0
  5  6  1  0
  6  7  2  0
  7  8  1  0
  8  9  1  0
  9 10  2  0
 10 11  1  0
 11 12  2  0
 12 13  1  0
 13 14  1  0
 14 15  2  0
 15 16  1  0
 16 17  2  0
 17 18  1  0
 18 19  2  0
 18 20  1  0
 20 21  1  0
 17 22  1  0
 22 23  1  0
 22 24  2  0
  7 25  1  0
 25 26  2  0
 25 27  1  0
 27  2  1  0
 13  9  1  0
 24 14  1  0
M  END
>  <Title>  (1276) 
idABXBgen8

$$$$

     RDKit          2D

 20 20  0  0  0  0  0  0  0  0999 V2000
    6.5691   -1.2990    0.0000 O   0  0  0  0  0  0  0  0  0  0  0  0
    5.8191    0.0000    0.0000 C   0  0  0  0  0  0  0  0  0  0  0  0
    4.3191    0.0000    0.0000 C   0  0  0  0  0  0  0  0  0  0  0  0
    4.0586   -1.4772    0.0000 C   0  0  0  0  0  0  0  0  0  0  0  0
    3.3086   -2.7762    0.0000 C   0  0  0  0  0  0  0  0  0  0  0  0
    2.1595   -3.7404    0.0000 C   0  0  0  0  0  0  0  0  0  0  0  0
    0.7500   -4.2535    0.0000 C   0  0  0  0  0  0  0  0  0  0  0  0
   -0.7500   -4.2535    0.0000 C   0  0  0  0  0  0  0  0  0  0  0  0
   -2.1595   -3.7404    0.0000 C   0  0  0  0  0  0  0  0  0  0  0  0
   -3.3086   -2.7762    0.0000 C   0  0  0  0  0  0  0  0  0  0  0  0
   -4.0586   -1.4772    0.0000 C   0  0  0  0  0  0  0  0  0  0  0  0
   -4.3191    0.0000    0.0000 C   0  0  0  0  0  0  0  0  0  0  0  0
   -4.0586    1.4772    0.0000 C   0  0  0  0  0  0  0  0  0  0  0  0
   -3.3086    2.7762    0.0000 C   0  0  0  0  0  0  0  0  0  0  0  0
   -2.1595    3.7404    0.0000 C   0  0  0  0  0  0  0  0  0  0  0  0
   -0.7500    4.2535    0.0000 C   0  0  0  0  0  0  0  0  0  0  0  0
    0.7500    4.2535    0.0000 C   0  0  0  0  0  0  0  0  0  0  0  0
    2.1595    3.7404    0.0000 C   0  0  0  0  0  0  0  0  0  0  0  0
    3.3086    2.7762    0.0000 C   0  0  0  0  0  0  0  0  0  0  0  0
    4.0586    1.4772    0.0000 C   0  0  0  0  0  0  0  0  0  0  0  0
  1  2  1  0
  2  3  1  0
  3  4  2  0
  4  5  1  0
  5  6  2  0
  6  7  1  0
  7  8  2  0
  8  9  1  0
  9 10  2  0
 10 11  1  0
 11 12  2  0
 12 13  1  0
 13 14  2  0
 14 15  1  0
 15 16  2  0
 16 17  1  0
 17 18  2  0
 18 19  1  0
 19 20  2  0
 20  3  1  0
M  END
>  <Title>  (1277) 
idABXCgen8

$$$$

     RDKit          2D

 24 26  0  0  0  0  0  0  0  0999 V2000
    3.7500    1.2990    0.0000 O   0  0  0  0  0  0  0  0  0  0  0  0
    3.0000    0.0000    0.0000 C   0  0  0  0  0  0  0  0  0  0  0  0
    3.7500   -1.2990    0.0000 N   0  0  0  0  0  0  0  0  0  0  0  0
    5.2500   -1.2990    0.0000 O   0  0  0  0  0  0  0  0  0  0  0  0
    1.5000    0.0000    0.0000 C   0  0  0  0  0  0  0  0  0  0  0  0
    0.7500   -1.2990    0.0000 C   0  0  0  0  0  0  0  0  0  0  0  0
   -0.7500   -1.2990    0.0000 C   0  0  0  0  0  0  0  0  0  0  0  0
   -1.5000    0.0000    0.0000 C   0  0  0  0  0  0  0  0  0  0  0  0
   -3.0000    0.0000    0.0000 N   0  0  0  0  0  0  0  0  0  0  0  0
   -3.8817   -1.2135    0.0000 N   0  0  0  0  0  0  0  0  0  0  0  0
   -5.3083   -0.7500    0.0000 N   0  0  0  0  0  0  0  0  0  0  0  0
   -5.3083    0.7500    0.0000 N   0  0  0  0  0  0  0  0  0  0  0  0
   -3.8817    1.2135    0.0000 C   0  0  0  0  0  0  0  0  0  0  0  0
   -3.4182    2.6401    0.0000 C   0  0  0  0  0  0  0  0  0  0  0  0
   -4.4218    3.7548    0.0000 C   0  0  0  0  0  0  0  0  0  0  0  0
   -5.9136    3.5980    0.0000 C   0  0  0  0  0  0  0  0  0  0  0  0
   -6.5237    4.9684    0.0000 C   0  0  0  0  0  0  0  0  0  0  0  0
   -5.4090    5.9720    0.0000 C   0  0  0  0  0  0  0  0  0  0  0  0
   -5.5658    7.4638    0.0000 C   0  0  0  0  0  0  0  0  0  0  0  0
   -4.3523    8.3455    0.0000 O   0  0  0  0  0  0  0  0  0  0  0  0
   -4.1100    5.2220    0.0000 N   0  0  0  0  0  0  0  0  0  0  0  0
   -0.7500    1.2990    0.0000 C   0  0  0  0  0  0  0  0  0  0  0  0
   -1.5000    2.5981    0.0000 O   0  0  0  0  0  0  0  0  0  0  0  0
    0.7500    1.2990    0.0000 N   0  0  0  0  0  0  0  0  0  0  0  0
  1  2  2  0
  2  3  1  0
  3  4  1  0
  2  5  1  0
  5  6  2  0
  6  7  1  0
  7  8  2  0
  8  9  1  0
  9 10  1  0
 10 11  2  0
 11 12  1  0
 12 13  2  0
 13 14  1  0
 14 15  1  0
 15 16  2  0
 16 17  1  0
 17 18  2  0
 18 19  1  0
 19 20  1  0
 18 21  1  0
  8 22  1  0
 22 23  2  0
 22 24  1  0
 24  5  1  0
 13  9  1  0
 21 15  1  0
M  END
>  <Title>  (1278) 
idABXDgen8

$$$$

     RDKit          2D

 20 21  0  0  0  0  0  0  0  0999 V2000
    4.6771   -1.2990    0.0000 C   0  0  0  0  0  0  0  0  0  0  0  0
    3.9271    0.0000    0.0000 O   0  0  0  0  0  0  0  0  0  0  0  0
    2.4271    0.0000    0.0000 C   0  0  0  0  0  0  0  0  0  0  0  0
    1.9635   -1.4266    0.0000 C   0  0  0  0  0  0  0  0  0  0  0  0
    0.7500   -2.3083    0.0000 C   0  0  0  0  0  0  0  0  0  0  0  0
   -0.7500   -2.3083    0.0000 C   0  0  0  0  0  0  0  0  0  0  0  0
   -1.9635   -1.4266    0.0000 C   0  0  0  0  0  0  0  0  0  0  0  0
   -2.4271    0.0000    0.0000 C   0  0  0  0  0  0  0  0  0  0  0  0
   -1.9635    1.4266    0.0000 C   0  0  0  0  0  0  0  0  0  0  0  0
   -0.7500    2.3083    0.0000 C   0  0  0  0  0  0  0  0  0  0  0  0
    0.7500    2.3083    0.0000 C   0  0  0  0  0  0  0  0  0  0  0  0
    1.9635    1.4266    0.0000 C   0  0  0  0  0  0  0  0  0  0  0  0
    3.1771    2.3083    0.0000 C   0  0  0  0  0  0  0  0  0  0  0  0
    4.5474    1.6982    0.0000 C   0  0  0  0  0  0  0  0  0  0  0  0
    5.7609    2.5798    0.0000 C   0  0  0  0  0  0  0  0  0  0  0  0
    7.1312    1.9697    0.0000 C   0  0  0  0  0  0  0  0  0  0  0  0
    8.3447    2.8514    0.0000 C   0  0  0  0  0  0  0  0  0  0  0  0
    8.1879    4.3432    0.0000 C   0  0  0  0  0  0  0  0  0  0  0  0
    6.8176    4.9533    0.0000 C   0  0  0  0  0  0  0  0  0  0  0  0
    5.6041    4.0716    0.0000 C   0  0  0  0  0  0  0  0  0  0  0  0
  1  2  1  0
  2  3  1  0
  3  4  2  0
  4  5  1  0
  5  6  2  0
  6  7  1  0
  7  8  2  0
  8  9  1  0
  9 10  2  0
 10 11  1  0
 11 12  2  0
 12 13  1  0
 13 14  1  0
 14 15  1  0
 15 16  2  0
 16 17  1  0
 17 18  2  0
 18 19  1  0
 19 20  2  0
 12  3  1  0
 20 15  1  0
M  END
>  <Title>  (1279) 
idABXEgen8

$$$$

     RDKit          2D

 17 17  0  0  0  0  0  0  0  0999 V2000
    5.1073    0.0000    0.0000 C   0  0  0  0  0  0  0  0  0  0  0  0
    3.6073    0.0000    0.0000 C   0  0  0  0  0  0  0  0  0  0  0  0
    3.2954    1.4672    0.0000 C   0  0  0  0  0  0  0  0  0  0  0  0
    2.4138    2.6807    0.0000 C   0  0  0  0  0  0  0  0  0  0  0  0
    1.1147    3.4307    0.0000 C   0  0  0  0  0  0  0  0  0  0  0  0
   -0.3771    3.5875    0.0000 C   0  0  0  0  0  0  0  0  0  0  0  0
   -1.8037    3.1240    0.0000 C   0  0  0  0  0  0  0  0  0  0  0  0
   -2.9184    2.1203    0.0000 C   0  0  0  0  0  0  0  0  0  0  0  0
   -3.5285    0.7500    0.0000 C   0  0  0  0  0  0  0  0  0  0  0  0
   -3.5285   -0.7500    0.0000 C   0  0  0  0  0  0  0  0  0  0  0  0
   -2.9184   -2.1203    0.0000 C   0  0  0  0  0  0  0  0  0  0  0  0
   -1.8037   -3.1240    0.0000 C   0  0  0  0  0  0  0  0  0  0  0  0
   -0.3771   -3.5875    0.0000 C   0  0  0  0  0  0  0  0  0  0  0  0
    1.1147   -3.4307    0.0000 C   0  0  0  0  0  0  0  0  0  0  0  0
    2.4138   -2.6807    0.0000 C   0  0  0  0  0  0  0  0  0  0  0  0
    3.4175   -3.7955    0.0000 C   0  0  0  0  0  0  0  0  0  0  0  0
    3.2954   -1.4672    0.0000 C   0  0  0  0  0  0  0  0  0  0  0  0
  1  2  1  0
  2  3  2  0
  3  4  1  0
  4  5  2  0
  5  6  1  0
  6  7  2  0
  7  8  1  0
  8  9  2  0
  9 10  1  0
 10 11  2  0
 11 12  1  0
 12 13  2  0
 13 14  1  0
 14 15  2  0
 15 16  1  0
 15 17  1  0
 17  2  1  0
M  END
>  <Title>  (1280) 
idABXFgen8

$$$$

     RDKit          2D

 19 19  0  0  0  0  0  0  0  0999 V2000
    6.0944   -1.2990    0.0000 C   0  0  0  0  0  0  0  0  0  0  0  0
    5.3444    0.0000    0.0000 O   0  0  0  0  0  0  0  0  0  0  0  0
    3.8444    0.0000    0.0000 C   0  0  0  0  0  0  0  0  0  0  0  0
    3.5517   -1.4712    0.0000 C   0  0  0  0  0  0  0  0  0  0  0  0
    2.7184   -2.7184    0.0000 C   0  0  0  0  0  0  0  0  0  0  0  0
    1.4712   -3.5517    0.0000 C   0  0  0  0  0  0  0  0  0  0  0  0
   -0.0000   -3.8444    0.0000 C   0  0  0  0  0  0  0  0  0  0  0  0
   -1.4712   -3.5517    0.0000 C   0  0  0  0  0  0  0  0  0  0  0  0
   -2.7184   -2.7184    0.0000 C   0  0  0  0  0  0  0  0  0  0  0  0
   -3.5517   -1.4712    0.0000 C   0  0  0  0  0  0  0  0  0  0  0  0
   -3.8444    0.0000    0.0000 C   0  0  0  0  0  0  0  0  0  0  0  0
   -3.5517    1.4712    0.0000 C   0  0  0  0  0  0  0  0  0  0  0  0
   -2.7184    2.7184    0.0000 C   0  0  0  0  0  0  0  0  0  0  0  0
   -1.4712    3.5517    0.0000 C   0  0  0  0  0  0  0  0  0  0  0  0
    0.0000    3.8444    0.0000 C   0  0  0  0  0  0  0  0  0  0  0  0
    1.4712    3.5517    0.0000 C   0  0  0  0  0  0  0  0  0  0  0  0
    2.7184    2.7184    0.0000 C   0  0  0  0  0  0  0  0  0  0  0  0
    3.5517    1.4712    0.0000 C   0  0  0  0  0  0  0  0  0  0  0  0
    4.9376    2.0452    0.0000 O   0  0  0  0  0  0  0  0  0  0  0  0
  1  2  1  0
  2  3  1  0
  3  4  2  0
  4  5  1  0
  5  6  2  0
  6  7  1  0
  7  8  2  0
  8  9  1  0
  9 10  2  0
 10 11  1  0
 11 12  2  0
 12 13  1  0
 13 14  2  0
 14 15  1  0
 15 16  2  0
 16 17  1  0
 17 18  2  0
 18 19  1  0
 18  3  1  0
M  END
>  <Title>  (1281) 
idABXGgen8

$$$$

     RDKit          2D

 13 13  0  0  0  0  0  0  0  0999 V2000
    4.3978    0.0000    0.0000 N   0  0  0  0  0  0  0  0  0  0  0  0
    2.8978    0.0000    0.0000 C   0  0  0  0  0  0  0  0  0  0  0  0
    2.5095   -1.4489    0.0000 C   0  0  0  0  0  0  0  0  0  0  0  0
    1.4489   -2.5095    0.0000 C   0  0  0  0  0  0  0  0  0  0  0  0
   -0.0000   -2.8978    0.0000 C   0  0  0  0  0  0  0  0  0  0  0  0
   -1.4489   -2.5095    0.0000 C   0  0  0  0  0  0  0  0  0  0  0  0
   -2.5095   -1.4489    0.0000 C   0  0  0  0  0  0  0  0  0  0  0  0
   -2.8978    0.0000    0.0000 C   0  0  0  0  0  0  0  0  0  0  0  0
   -2.5095    1.4489    0.0000 C   0  0  0  0  0  0  0  0  0  0  0  0
   -1.4489    2.5095    0.0000 C   0  0  0  0  0  0  0  0  0  0  0  0
    0.0000    2.8978    0.0000 C   0  0  0  0  0  0  0  0  0  0  0  0
    1.4489    2.5095    0.0000 C   0  0  0  0  0  0  0  0  0  0  0  0
    2.5095    1.4489    0.0000 C   0  0  0  0  0  0  0  0  0  0  0  0
  1  2  1  0
  2  3  2  0
  3  4  1  0
  4  5  2  0
  5  6  1  0
  6  7  2  0
  7  8  1  0
  8  9  2  0
  9 10  1  0
 10 11  2  0
 11 12  1  0
 12 13  2  0
 13  2  1  0
M  END
>  <Title>  (1282) 
idABXHgen8

$$$$

     RDKit          2D

 41 47  0  0  0  0  0  0  0  0999 V2000
   -1.1783   -3.1875    0.0000 C   0  0  0  0  0  0  0  0  0  0  0  0
    0.2636   -3.6010    0.0000 C   0  0  0  0  0  0  0  0  0  0  0  0
    1.3426   -2.5590    0.0000 C   0  0  0  0  0  0  0  0  0  0  0  0
    2.7845   -2.9724    0.0000 C   0  0  0  0  0  0  0  0  0  0  0  0
    3.1474   -4.4279    0.0000 C   0  0  0  0  0  0  0  0  0  0  0  0
    4.5893   -4.8413    0.0000 C   0  0  0  0  0  0  0  0  0  0  0  0
    5.7713   -3.9179    0.0000 N   0  0  0  0  0  0  0  0  0  0  0  0
    7.0148   -4.7566    0.0000 N   0  0  0  0  0  0  0  0  0  0  0  0
    6.6014   -6.1985    0.0000 N   0  0  0  0  0  0  0  0  0  0  0  0
    5.1023   -6.2509    0.0000 N   0  0  0  0  0  0  0  0  0  0  0  0
    4.2635   -7.4944    0.0000 C   0  0  0  0  0  0  0  0  0  0  0  0
    4.7765   -8.9040    0.0000 C   0  0  0  0  0  0  0  0  0  0  0  0
    3.5945   -9.8275    0.0000 C   0  0  0  0  0  0  0  0  0  0  0  0
    2.3510   -8.9887    0.0000 N   0  0  0  0  0  0  0  0  0  0  0  0
    2.7644   -7.5468    0.0000 N   0  0  0  0  0  0  0  0  0  0  0  0
    1.8409   -6.3648    0.0000 C   0  0  0  0  0  0  0  0  0  0  0  0
    0.4143   -6.8283    0.0000 C   0  0  0  0  0  0  0  0  0  0  0  0
   -0.9764   -6.2664    0.0000 C   0  0  0  0  0  0  0  0  0  0  0  0
   -1.9635   -5.0339    0.0000 C   0  0  0  0  0  0  0  0  0  0  0  0
   -0.5337   -5.2498    0.0000 N   0  0  0  0  0  0  0  0  0  0  0  0
    0.5337   -5.2498    0.0000 N   0  0  0  0  0  0  0  0  0  0  0  0
    1.3972   -4.6224    0.0000 N   0  0  0  0  0  0  0  0  0  0  0  0
    2.4271   -3.6073    0.0000 C   0  0  0  0  0  0  0  0  0  0  0  0
    2.6358   -5.0927    0.0000 C   0  0  0  0  0  0  0  0  0  0  0  0
    3.7286   -5.0545    0.0000 O   0  0  0  0  0  0  0  0  0  0  0  0
    1.9635   -2.1807    0.0000 C   0  0  0  0  0  0  0  0  0  0  0  0
    3.1771   -1.2990    0.0000 O   0  0  0  0  0  0  0  0  0  0  0  0
    0.7500   -1.2990    0.0000 C   0  0  0  0  0  0  0  0  0  0  0  0
    1.5000    0.0000    0.0000 C   0  0  0  0  0  0  0  0  0  0  0  0
    0.7500    1.2990    0.0000 C   0  0  0  0  0  0  0  0  0  0  0  0
   -0.7500    1.2990    0.0000 C   0  0  0  0  0  0  0  0  0  0  0  0
   -1.5000    0.0000    0.0000 C   0  0  0  0  0  0  0  0  0  0  0  0
   -0.7500   -1.2990    0.0000 C   0  0  0  0  0  0  0  0  0  0  0  0
   -1.9635   -2.1807    0.0000 N   0  0  0  0  0  0  0  0  0  0  0  0
   -3.1771   -1.2990    0.0000 N   0  0  0  0  0  0  0  0  0  0  0  0
   -4.3906   -2.1807    0.0000 N   0  0  0  0  0  0  0  0  0  0  0  0
   -3.9271   -3.6073    0.0000 N   0  0  0  0  0  0  0  0  0  0  0  0
   -2.4271   -3.6073    0.0000 C   0  0  0  0  0  0  0  0  0  0  0  0
    2.0684   -5.4699    0.0000 C   0  0  0  0  0  0  0  0  0  0  0  0
    2.0683   -6.9699    0.0000 O   0  0  0  0  0  0  0  0  0  0  0  0
    0.6265   -5.0564    0.0000 N   0  0  0  0  0  0  0  0  0  0  0  0
  1  2  1  0
  2  3  2  0
  3  4  1  0
  4  5  2  0
  5  6  1  0
  6  7  2  0
  7  8  1  0
  8  9  2  0
  9 10  1  0
 10 11  1  0
 11 12  2  0
 12 13  1  0
 13 14  2  0
 14 15  1  0
 15 16  1  0
 16 17  2  0
 17 18  1  0
 18 19  2  0
 19 20  1  0
 20 21  1  0
 21 22  1  0
 22 23  2  0
 23 24  1  0
 24 25  2  0
 23 26  1  0
 26 27  2  0
 26 28  1  0
 28 29  2  0
 29 30  1  0
 30 31  2  0
 31 32  1  0
 32 33  2  0
 33 34  1  0
 34 35  1  0
 35 36  2  0
 36 37  1  0
 37 38  2  0
  5 39  1  0
 39 40  2  0
 39 41  1  0
 41  2  1  0
 10  6  1  0
 15 11  1  0
 24 16  1  0
 33 28  1  0
 38 34  1  0
 38 19  1  0
M  END
>  <Title>  (1283) 
idABXIgen8

$$$$

     RDKit          2D

 42 47  0  0  0  0  0  0  0  0999 V2000
   -6.3379    9.1465    0.0000 C   0  0  0  0  0  0  0  0  0  0  0  0
   -6.2706    7.6480    0.0000 C   0  0  0  0  0  0  0  0  0  0  0  0
   -4.8913    7.0584    0.0000 C   0  0  0  0  0  0  0  0  0  0  0  0
   -4.4922    5.6125    0.0000 C   0  0  0  0  0  0  0  0  0  0  0  0
   -5.3739    4.3990    0.0000 C   0  0  0  0  0  0  0  0  0  0  0  0
   -4.6631    3.0781    0.0000 C   0  0  0  0  0  0  0  0  0  0  0  0
   -5.3139    1.7266    0.0000 N   0  0  0  0  0  0  0  0  0  0  0  0
   -4.2297    0.6900    0.0000 N   0  0  0  0  0  0  0  0  0  0  0  0
   -2.9088    1.4008    0.0000 N   0  0  0  0  0  0  0  0  0  0  0  0
   -3.1767    2.8767    0.0000 N   0  0  0  0  0  0  0  0  0  0  0  0
   -2.1401    3.9609    0.0000 C   0  0  0  0  0  0  0  0  0  0  0  0
   -2.6671    5.3653    0.0000 O   0  0  0  0  0  0  0  0  0  0  0  0
   -1.8978    6.6529    0.0000 C   0  0  0  0  0  0  0  0  0  0  0  0
   -0.4114    6.8543    0.0000 C   0  0  0  0  0  0  0  0  0  0  0  0
    0.6728    5.8177    0.0000 C   0  0  0  0  0  0  0  0  0  0  0  0
    2.0772    6.3448    0.0000 C   0  0  0  0  0  0  0  0  0  0  0  0
    3.3290    5.5184    0.0000 N   0  0  0  0  0  0  0  0  0  0  0  0
    4.5018    6.4536    0.0000 N   0  0  0  0  0  0  0  0  0  0  0  0
    3.9747    7.8580    0.0000 N   0  0  0  0  0  0  0  0  0  0  0  0
    2.4762    7.7907    0.0000 N   0  0  0  0  0  0  0  0  0  0  0  0
    1.5410    8.9634    0.0000 C   0  0  0  0  0  0  0  0  0  0  0  0
    0.0577    8.7399    0.0000 C   0  0  0  0  0  0  0  0  0  0  0  0
   -0.8775    9.9126    0.0000 C   0  0  0  0  0  0  0  0  0  0  0  0
   -0.3295   11.3089    0.0000 N   0  0  0  0  0  0  0  0  0  0  0  0
    1.1538   11.5325    0.0000 N   0  0  0  0  0  0  0  0  0  0  0  0
    2.0890   10.3598    0.0000 N   0  0  0  0  0  0  0  0  0  0  0  0
    0.5384    4.3237    0.0000 C   0  0  0  0  0  0  0  0  0  0  0  0
   -0.7135    3.4974    0.0000 C   0  0  0  0  0  0  0  0  0  0  0  0
   -0.5122    2.0110    0.0000 C   0  0  0  0  0  0  0  0  0  0  0  0
   -1.5963    0.9744    0.0000 C   0  0  0  0  0  0  0  0  0  0  0  0
   -0.9455   -0.3771    0.0000 C   0  0  0  0  0  0  0  0  0  0  0  0
    0.5409   -0.1757    0.0000 C   0  0  0  0  0  0  0  0  0  0  0  0
    1.5775   -1.2599    0.0000 C   0  0  0  0  0  0  0  0  0  0  0  0
    1.1569   -2.6997    0.0000 O   0  0  0  0  0  0  0  0  0  0  0  0
    3.0347   -0.9043    0.0000 N   0  0  0  0  0  0  0  0  0  0  0  0
    4.0713   -1.9885    0.0000 O   0  0  0  0  0  0  0  0  0  0  0  0
    0.8087    1.3002    0.0000 C   0  0  0  0  0  0  0  0  0  0  0  0
    2.1602    1.9510    0.0000 O   0  0  0  0  0  0  0  0  0  0  0  0
   -6.8724    4.3317    0.0000 N   0  0  0  0  0  0  0  0  0  0  0  0
   -7.8593    5.4613    0.0000 C   0  0  0  0  0  0  0  0  0  0  0  0
   -9.3052    5.0622    0.0000 O   0  0  0  0  0  0  0  0  0  0  0  0
   -7.5915    6.9372    0.0000 N   0  0  0  0  0  0  0  0  0  0  0  0
  1  2  1  0
  2  3  2  0
  3  4  1  0
  4  5  2  0
  5  6  1  0
  6  7  2  0
  7  8  1  0
  8  9  2  0
  9 10  1  0
 10 11  1  0
 11 12  1  0
 12 13  1  0
 13 14  1  0
 14 15  2  0
 15 16  1  0
 16 17  2  0
 17 18  1  0
 18 19  2  0
 19 20  1  0
 20 21  1  0
 21 22  2  0
 22 23  1  0
 23 24  2  0
 24 25  1  0
 25 26  2  0
 15 27  1  0
 27 28  2  0
 28 29  1  0
 29 30  2  0
 30 31  1  0
 31 32  2  0
 32 33  1  0
 33 34  2  0
 33 35  1  0
 35 36  1  0
 32 37  1  0
 37 38  2  0
  5 39  1  0
 39 40  1  0
 40 41  2  0
 40 42  1  0
 42  2  1  0
 10  6  1  0
 28 11  1  0
 37 29  1  0
 20 16  1  0
 26 21  1  0
M  END
>  <Title>  (1284) 
idABXJgen8

$$$$

     RDKit          2D

 39 44  0  0  0  0  0  0  0  0999 V2000
    3.7500   -1.2990    0.0000 C   0  0  0  0  0  0  0  0  0  0  0  0
    3.0000    0.0000    0.0000 O   0  0  0  0  0  0  0  0  0  0  0  0
    1.5000    0.0000    0.0000 C   0  0  0  0  0  0  0  0  0  0  0  0
    0.7500   -1.2990    0.0000 C   0  0  0  0  0  0  0  0  0  0  0  0
   -0.7500   -1.2990    0.0000 C   0  0  0  0  0  0  0  0  0  0  0  0
   -1.5000    0.0000    0.0000 C   0  0  0  0  0  0  0  0  0  0  0  0
   -3.0000    0.0000    0.0000 C   0  0  0  0  0  0  0  0  0  0  0  0
   -3.8817   -1.2135    0.0000 N   0  0  0  0  0  0  0  0  0  0  0  0
   -5.3083   -0.7500    0.0000 N   0  0  0  0  0  0  0  0  0  0  0  0
   -5.3083    0.7500    0.0000 N   0  0  0  0  0  0  0  0  0  0  0  0
   -3.8817    1.2135    0.0000 N   0  0  0  0  0  0  0  0  0  0  0  0
   -3.4182    2.6401    0.0000 C   0  0  0  0  0  0  0  0  0  0  0  0
   -1.9509    2.9520    0.0000 C   0  0  0  0  0  0  0  0  0  0  0  0
   -1.4874    4.3786    0.0000 C   0  0  0  0  0  0  0  0  0  0  0  0
   -2.4911    5.4933    0.0000 C   0  0  0  0  0  0  0  0  0  0  0  0
   -2.0276    6.9199    0.0000 C   0  0  0  0  0  0  0  0  0  0  0  0
   -2.9093    8.1334    0.0000 N   0  0  0  0  0  0  0  0  0  0  0  0
   -2.0276    9.3469    0.0000 N   0  0  0  0  0  0  0  0  0  0  0  0
   -0.6010    8.8834    0.0000 N   0  0  0  0  0  0  0  0  0  0  0  0
   -0.6010    7.3834    0.0000 N   0  0  0  0  0  0  0  0  0  0  0  0
    0.6125    6.5017    0.0000 C   0  0  0  0  0  0  0  0  0  0  0  0
    0.4557    5.0099    0.0000 C   0  0  0  0  0  0  0  0  0  0  0  0
    1.6693    4.1283    0.0000 C   0  0  0  0  0  0  0  0  0  0  0  0
    3.0396    4.7384    0.0000 C   0  0  0  0  0  0  0  0  0  0  0  0
    3.1964    6.2301    0.0000 C   0  0  0  0  0  0  0  0  0  0  0  0
    1.9829    7.1118    0.0000 C   0  0  0  0  0  0  0  0  0  0  0  0
   -3.9583    5.1814    0.0000 C   0  0  0  0  0  0  0  0  0  0  0  0
   -4.4218    3.7548    0.0000 C   0  0  0  0  0  0  0  0  0  0  0  0
   -5.8891    3.4430    0.0000 C   0  0  0  0  0  0  0  0  0  0  0  0
   -6.8928    4.5577    0.0000 C   0  0  0  0  0  0  0  0  0  0  0  0
   -8.3600    4.2458    0.0000 C   0  0  0  0  0  0  0  0  0  0  0  0
   -8.8235    2.8192    0.0000 C   0  0  0  0  0  0  0  0  0  0  0  0
  -10.2907    2.5074    0.0000 C   0  0  0  0  0  0  0  0  0  0  0  0
   -7.8198    1.7045    0.0000 C   0  0  0  0  0  0  0  0  0  0  0  0
   -8.2833    0.2779    0.0000 O   0  0  0  0  0  0  0  0  0  0  0  0
   -6.3526    2.0164    0.0000 N   0  0  0  0  0  0  0  0  0  0  0  0
   -0.7500    1.2990    0.0000 N   0  0  0  0  0  0  0  0  0  0  0  0
    0.7500    1.2990    0.0000 C   0  0  0  0  0  0  0  0  0  0  0  0
    1.5000    2.5981    0.0000 O   0  0  0  0  0  0  0  0  0  0  0  0
  1  2  1  0
  2  3  1  0
  3  4  2  0
  4  5  1  0
  5  6  2  0
  6  7  1  0
  7  8  2  0
  8  9  1  0
  9 10  2  0
 10 11  1  0
 11 12  1  0
 12 13  2  0
 13 14  1  0
 14 15  2  0
 15 16  1  0
 16 17  2  0
 17 18  1  0
 18 19  2  0
 19 20  1  0
 20 21  1  0
 21 22  2  0
 22 23  1  0
 23 24  2  0
 24 25  1  0
 25 26  2  0
 15 27  1  0
 27 28  2  0
 28 29  1  0
 29 30  2  0
 30 31  1  0
 31 32  2  0
 32 33  1  0
 32 34  1  0
 34 35  2  0
 34 36  1  0
  6 37  1  0
 37 38  1  0
 38 39  2  0
 38  3  1  0
 11  7  1  0
 28 12  1  0
 36 29  1  0
 20 16  1  0
 26 21  1  0
M  END
>  <Title>  (1285) 
idABXKgen8

$$$$

     RDKit          2D

 14 14  0  0  0  0  0  0  0  0999 V2000
    4.6771   -1.2990    0.0000 C   0  0  0  0  0  0  0  0  0  0  0  0
    3.9271    0.0000    0.0000 O   0  0  0  0  0  0  0  0  0  0  0  0
    2.4271    0.0000    0.0000 C   0  0  0  0  0  0  0  0  0  0  0  0
    1.9635   -1.4266    0.0000 C   0  0  0  0  0  0  0  0  0  0  0  0
    0.7500   -2.3083    0.0000 C   0  0  0  0  0  0  0  0  0  0  0  0
   -0.7500   -2.3083    0.0000 C   0  0  0  0  0  0  0  0  0  0  0  0
   -1.9635   -1.4266    0.0000 C   0  0  0  0  0  0  0  0  0  0  0  0
   -2.4271    0.0000    0.0000 C   0  0  0  0  0  0  0  0  0  0  0  0
   -3.9271    0.0000    0.0000 F   0  0  0  0  0  0  0  0  0  0  0  0
   -1.9635    1.4266    0.0000 C   0  0  0  0  0  0  0  0  0  0  0  0
   -3.1771    2.3083    0.0000 C   0  0  0  0  0  0  0  0  0  0  0  0
   -0.7500    2.3083    0.0000 C   0  0  0  0  0  0  0  0  0  0  0  0
    0.7500    2.3083    0.0000 C   0  0  0  0  0  0  0  0  0  0  0  0
    1.9635    1.4266    0.0000 C   0  0  0  0  0  0  0  0  0  0  0  0
  1  2  1  0
  2  3  1  0
  3  4  2  0
  4  5  1  0
  5  6  2  0
  6  7  1  0
  7  8  2  0
  8  9  1  0
  8 10  1  0
 10 11  1  0
 10 12  2  0
 12 13  1  0
 13 14  2  0
 14  3  1  0
M  END
>  <Title>  (1286) 
idABXLgen8

$$$$

     RDKit          2D

 38 43  0  0  0  0  0  0  0  0999 V2000
    3.0000    0.0000    0.0000 C   0  0  0  0  0  0  0  0  0  0  0  0
    1.5000    0.0000    0.0000 C   0  0  0  0  0  0  0  0  0  0  0  0
    0.7500   -1.2990    0.0000 C   0  0  0  0  0  0  0  0  0  0  0  0
   -0.7500   -1.2990    0.0000 C   0  0  0  0  0  0  0  0  0  0  0  0
   -1.5000    0.0000    0.0000 C   0  0  0  0  0  0  0  0  0  0  0  0
   -3.0000    0.0000    0.0000 C   0  0  0  0  0  0  0  0  0  0  0  0
   -3.7500   -1.2990    0.0000 O   0  0  0  0  0  0  0  0  0  0  0  0
   -3.7500    1.2990    0.0000 N   0  0  0  0  0  0  0  0  0  0  0  0
   -5.2500    1.2990    0.0000 C   0  0  0  0  0  0  0  0  0  0  0  0
   -6.1317    0.0855    0.0000 N   0  0  0  0  0  0  0  0  0  0  0  0
   -7.5583    0.5490    0.0000 N   0  0  0  0  0  0  0  0  0  0  0  0
   -7.5583    2.0490    0.0000 N   0  0  0  0  0  0  0  0  0  0  0  0
   -6.1317    2.5126    0.0000 N   0  0  0  0  0  0  0  0  0  0  0  0
   -5.6682    3.9391    0.0000 C   0  0  0  0  0  0  0  0  0  0  0  0
   -4.2009    4.2510    0.0000 C   0  0  0  0  0  0  0  0  0  0  0  0
   -3.7374    5.6776    0.0000 C   0  0  0  0  0  0  0  0  0  0  0  0
   -4.7411    6.7923    0.0000 C   0  0  0  0  0  0  0  0  0  0  0  0
   -4.2776    8.2189    0.0000 C   0  0  0  0  0  0  0  0  0  0  0  0
   -5.1593    9.4324    0.0000 N   0  0  0  0  0  0  0  0  0  0  0  0
   -4.2776   10.6460    0.0000 N   0  0  0  0  0  0  0  0  0  0  0  0
   -2.8510   10.1824    0.0000 N   0  0  0  0  0  0  0  0  0  0  0  0
   -2.8510    8.6824    0.0000 N   0  0  0  0  0  0  0  0  0  0  0  0
   -1.6375    7.8008    0.0000 C   0  0  0  0  0  0  0  0  0  0  0  0
   -1.7943    6.3090    0.0000 C   0  0  0  0  0  0  0  0  0  0  0  0
   -0.5807    5.4273    0.0000 C   0  0  0  0  0  0  0  0  0  0  0  0
    0.7896    6.0374    0.0000 C   0  0  0  0  0  0  0  0  0  0  0  0
    0.9464    7.5292    0.0000 C   0  0  0  0  0  0  0  0  0  0  0  0
   -0.2671    8.4109    0.0000 C   0  0  0  0  0  0  0  0  0  0  0  0
   -6.2083    6.4805    0.0000 C   0  0  0  0  0  0  0  0  0  0  0  0
   -6.6718    5.0539    0.0000 C   0  0  0  0  0  0  0  0  0  0  0  0
   -8.1391    4.7420    0.0000 C   0  0  0  0  0  0  0  0  0  0  0  0
   -9.1428    5.8567    0.0000 C   0  0  0  0  0  0  0  0  0  0  0  0
  -10.6100    5.5448    0.0000 C   0  0  0  0  0  0  0  0  0  0  0  0
  -11.0735    4.1183    0.0000 C   0  0  0  0  0  0  0  0  0  0  0  0
  -10.0698    3.0035    0.0000 C   0  0  0  0  0  0  0  0  0  0  0  0
   -8.6026    3.3154    0.0000 C   0  0  0  0  0  0  0  0  0  0  0  0
   -0.7500    1.2990    0.0000 C   0  0  0  0  0  0  0  0  0  0  0  0
    0.7500    1.2990    0.0000 C   0  0  0  0  0  0  0  0  0  0  0  0
  1  2  1  0
  2  3  2  0
  3  4  1  0
  4  5  2  0
  5  6  1  0
  6  7  2  0
  6  8  1  0
  8  9  1  0
  9 10  2  0
 10 11  1  0
 11 12  2  0
 12 13  1  0
 13 14  1  0
 14 15  2  0
 15 16  1  0
 16 17  2  0
 17 18  1  0
 18 19  2  0
 19 20  1  0
 20 21  2  0
 21 22  1  0
 22 23  1  0
 23 24  2  0
 24 25  1  0
 25 26  2  0
 26 27  1  0
 27 28  2  0
 17 29  1  0
 29 30  2  0
 30 31  1  0
 31 32  2  0
 32 33  1  0
 33 34  2  0
 34 35  1  0
 35 36  2  0
  5 37  1  0
 37 38  2  0
 38  2  1  0
 13  9  1  0
 30 14  1  0
 36 31  1  0
 22 18  1  0
 28 23  1  0
M  END
>  <Title>  (1287) 
idABXMgen8

$$$$

     RDKit          2D

 39 44  0  0  0  0  0  0  0  0999 V2000
    3.0000    0.0000    0.0000 C   0  0  0  0  0  0  0  0  0  0  0  0
    1.5000    0.0000    0.0000 C   0  0  0  0  0  0  0  0  0  0  0  0
    0.7500   -1.2990    0.0000 C   0  0  0  0  0  0  0  0  0  0  0  0
   -0.7500   -1.2990    0.0000 C   0  0  0  0  0  0  0  0  0  0  0  0
   -1.5000    0.0000    0.0000 C   0  0  0  0  0  0  0  0  0  0  0  0
   -3.0000    0.0000    0.0000 C   0  0  0  0  0  0  0  0  0  0  0  0
   -3.8817   -1.2135    0.0000 N   0  0  0  0  0  0  0  0  0  0  0  0
   -5.3083   -0.7500    0.0000 N   0  0  0  0  0  0  0  0  0  0  0  0
   -5.3083    0.7500    0.0000 N   0  0  0  0  0  0  0  0  0  0  0  0
   -3.8817    1.2135    0.0000 N   0  0  0  0  0  0  0  0  0  0  0  0
   -3.4182    2.6401    0.0000 C   0  0  0  0  0  0  0  0  0  0  0  0
   -1.9509    2.9520    0.0000 C   0  0  0  0  0  0  0  0  0  0  0  0
   -1.4874    4.3786    0.0000 C   0  0  0  0  0  0  0  0  0  0  0  0
   -2.4911    5.4933    0.0000 C   0  0  0  0  0  0  0  0  0  0  0  0
   -3.9583    5.1814    0.0000 C   0  0  0  0  0  0  0  0  0  0  0  0
   -4.4218    3.7548    0.0000 C   0  0  0  0  0  0  0  0  0  0  0  0
   -5.8891    3.4430    0.0000 C   0  0  0  0  0  0  0  0  0  0  0  0
   -6.8928    4.5577    0.0000 C   0  0  0  0  0  0  0  0  0  0  0  0
   -8.3600    4.2458    0.0000 C   0  0  0  0  0  0  0  0  0  0  0  0
   -8.8235    2.8192    0.0000 C   0  0  0  0  0  0  0  0  0  0  0  0
  -10.2907    2.5074    0.0000 C   0  0  0  0  0  0  0  0  0  0  0  0
  -10.7543    1.0808    0.0000 O   0  0  0  0  0  0  0  0  0  0  0  0
  -11.2944    3.6221    0.0000 N   0  0  0  0  0  0  0  0  0  0  0  0
  -12.7617    3.3102    0.0000 C   0  0  0  0  0  0  0  0  0  0  0  0
  -13.7653    4.4249    0.0000 C   0  0  0  0  0  0  0  0  0  0  0  0
  -15.2326    4.1131    0.0000 C   0  0  0  0  0  0  0  0  0  0  0  0
  -15.6961    2.6865    0.0000 C   0  0  0  0  0  0  0  0  0  0  0  0
  -17.1633    2.3746    0.0000 C   0  0  0  0  0  0  0  0  0  0  0  0
  -18.1670    3.4893    0.0000 C   0  0  0  0  0  0  0  0  0  0  0  0
  -19.6342    3.1775    0.0000 C   0  0  0  0  0  0  0  0  0  0  0  0
  -20.0978    1.7509    0.0000 C   0  0  0  0  0  0  0  0  0  0  0  0
  -19.0941    0.6362    0.0000 C   0  0  0  0  0  0  0  0  0  0  0  0
  -17.6268    0.9480    0.0000 C   0  0  0  0  0  0  0  0  0  0  0  0
  -14.6924    1.5718    0.0000 C   0  0  0  0  0  0  0  0  0  0  0  0
  -13.2252    1.8836    0.0000 C   0  0  0  0  0  0  0  0  0  0  0  0
   -7.8198    1.7045    0.0000 C   0  0  0  0  0  0  0  0  0  0  0  0
   -6.3526    2.0164    0.0000 C   0  0  0  0  0  0  0  0  0  0  0  0
   -0.7500    1.2990    0.0000 C   0  0  0  0  0  0  0  0  0  0  0  0
    0.7500    1.2990    0.0000 C   0  0  0  0  0  0  0  0  0  0  0  0
  1  2  1  0
  2  3  2  0
  3  4  1  0
  4  5  2  0
  5  6  1  0
  6  7  2  0
  7  8  1  0
  8  9  2  0
  9 10  1  0
 10 11  1  0
 11 12  1  0
 12 13  1  0
 13 14  1  0
 14 15  1  0
 15 16  1  0
 16 17  1  0
 17 18  2  0
 18 19  1  0
 19 20  2  0
 20 21  1  0
 21 22  2  0
 21 23  1  0
 23 24  1  0
 24 25  2  0
 25 26  1  0
 26 27  2  0
 27 28  1  0
 28 29  2  0
 29 30  1  0
 30 31  2  0
 31 32  1  0
 32 33  2  0
 27 34  1  0
 34 35  2  0
 20 36  1  0
 36 37  2  0
  5 38  1  0
 38 39  2  0
 39  2  1  0
 10  6  1  0
 16 11  1  0
 37 17  1  0
 35 24  1  0
 33 28  1  0
M  END
>  <Title>  (1288) 
idABXNgen8

$$$$

     RDKit          2D

 31 34  0  0  0  0  0  0  0  0999 V2000
    3.0000   -5.1962    0.0000 O   0  0  0  0  0  0  0  0  0  0  0  0
    1.5000   -5.1962    0.0000 C   0  0  0  0  0  0  0  0  0  0  0  0
    0.7500   -3.8971    0.0000 N   0  0  0  0  0  0  0  0  0  0  0  0
    1.5000   -2.5981    0.0000 C   0  0  0  0  0  0  0  0  0  0  0  0
    0.7500   -1.2990    0.0000 C   0  0  0  0  0  0  0  0  0  0  0  0
    1.5000    0.0000    0.0000 C   0  0  0  0  0  0  0  0  0  0  0  0
    0.7500    1.2990    0.0000 C   0  0  0  0  0  0  0  0  0  0  0  0
   -0.7500    1.2990    0.0000 C   0  0  0  0  0  0  0  0  0  0  0  0
   -1.5000    0.0000    0.0000 C   0  0  0  0  0  0  0  0  0  0  0  0
   -0.7500   -1.2990    0.0000 C   0  0  0  0  0  0  0  0  0  0  0  0
    0.7500   -6.4952    0.0000 C   0  0  0  0  0  0  0  0  0  0  0  0
    1.3601   -7.8655    0.0000 C   0  0  0  0  0  0  0  0  0  0  0  0
    0.2454   -8.8692    0.0000 C   0  0  0  0  0  0  0  0  0  0  0  0
   -1.0537   -8.1192    0.0000 C   0  0  0  0  0  0  0  0  0  0  0  0
   -2.4240   -8.7293    0.0000 C   0  0  0  0  0  0  0  0  0  0  0  0
   -2.7358  -10.1965    0.0000 N   0  0  0  0  0  0  0  0  0  0  0  0
   -4.2276  -10.3533    0.0000 N   0  0  0  0  0  0  0  0  0  0  0  0
   -4.8377   -8.9830    0.0000 N   0  0  0  0  0  0  0  0  0  0  0  0
   -3.7230   -7.9793    0.0000 N   0  0  0  0  0  0  0  0  0  0  0  0
   -3.8798   -6.4875    0.0000 C   0  0  0  0  0  0  0  0  0  0  0  0
   -2.6663   -5.6058    0.0000 C   0  0  0  0  0  0  0  0  0  0  0  0
   -2.8231   -4.1141    0.0000 C   0  0  0  0  0  0  0  0  0  0  0  0
   -4.1934   -3.5040    0.0000 C   0  0  0  0  0  0  0  0  0  0  0  0
   -4.3502   -2.0122    0.0000 C   0  0  0  0  0  0  0  0  0  0  0  0
   -3.1367   -1.1305    0.0000 O   0  0  0  0  0  0  0  0  0  0  0  0
   -5.7205   -1.4021    0.0000 N   0  0  0  0  0  0  0  0  0  0  0  0
   -5.8773    0.0897    0.0000 O   0  0  0  0  0  0  0  0  0  0  0  0
   -5.4069   -4.3856    0.0000 N   0  0  0  0  0  0  0  0  0  0  0  0
   -5.2501   -5.8774    0.0000 C   0  0  0  0  0  0  0  0  0  0  0  0
   -6.4636   -6.7591    0.0000 O   0  0  0  0  0  0  0  0  0  0  0  0
   -0.7418   -6.6520    0.0000 N   0  0  0  0  0  0  0  0  0  0  0  0
  1  2  2  0
  2  3  1  0
  3  4  1  0
  4  5  1  0
  5  6  2  0
  6  7  1  0
  7  8  2  0
  8  9  1  0
  9 10  2  0
  2 11  1  0
 11 12  2  0
 12 13  1  0
 13 14  2  0
 14 15  1  0
 15 16  2  0
 16 17  1  0
 17 18  2  0
 18 19  1  0
 19 20  1  0
 20 21  2  0
 21 22  1  0
 22 23  2  0
 23 24  1  0
 24 25  2  0
 24 26  1  0
 26 27  1  0
 23 28  1  0
 28 29  1  0
 29 30  2  0
 14 31  1  0
 10  5  1  0
 31 11  1  0
 19 15  1  0
 29 20  1  0
M  END
>  <Title>  (1289) 
idABXOgen8

$$$$

     RDKit          2D

 47 48  0  0  0  0  0  0  0  0999 V2000
   -3.5185   -0.2975    0.0000 C   0  0  0  0  0  0  0  0  0  0  0  0
   -3.0659   -1.7276    0.0000 C   0  0  0  0  0  0  0  0  0  0  0  0
   -4.4572   -2.2883    0.0000 C   0  0  0  0  0  0  0  0  0  0  0  0
   -5.7465   -3.0549    0.0000 C   0  0  0  0  0  0  0  0  0  0  0  0
   -6.9038   -4.0092    0.0000 C   0  0  0  0  0  0  0  0  0  0  0  0
   -7.9018   -5.1290    0.0000 C   0  0  0  0  0  0  0  0  0  0  0  0
   -8.7171   -6.3881    0.0000 C   0  0  0  0  0  0  0  0  0  0  0  0
   -9.3307   -7.7569    0.0000 C   0  0  0  0  0  0  0  0  0  0  0  0
   -9.7282   -9.2032    0.0000 C   0  0  0  0  0  0  0  0  0  0  0  0
   -9.9002  -10.6933    0.0000 C   0  0  0  0  0  0  0  0  0  0  0  0
   -9.8427  -12.1922    0.0000 C   0  0  0  0  0  0  0  0  0  0  0  0
   -9.5572  -13.6648    0.0000 C   0  0  0  0  0  0  0  0  0  0  0  0
   -9.0501  -15.0765    0.0000 C   0  0  0  0  0  0  0  0  0  0  0  0
   -8.3336  -16.3943    0.0000 C   0  0  0  0  0  0  0  0  0  0  0  0
   -7.4242  -17.5872    0.0000 C   0  0  0  0  0  0  0  0  0  0  0  0
   -6.3434  -18.6274    0.0000 C   0  0  0  0  0  0  0  0  0  0  0  0
   -5.1165  -19.4903    0.0000 C   0  0  0  0  0  0  0  0  0  0  0  0
   -3.7723  -20.1559    0.0000 C   0  0  0  0  0  0  0  0  0  0  0  0
   -2.3422  -20.6085    0.0000 C   0  0  0  0  0  0  0  0  0  0  0  0
   -0.8598  -20.8375    0.0000 C   0  0  0  0  0  0  0  0  0  0  0  0
    0.6402  -20.8375    0.0000 C   0  0  0  0  0  0  0  0  0  0  0  0
    2.1226  -20.6085    0.0000 C   0  0  0  0  0  0  0  0  0  0  0  0
    3.5527  -20.1559    0.0000 C   0  0  0  0  0  0  0  0  0  0  0  0
    4.8970  -19.4903    0.0000 C   0  0  0  0  0  0  0  0  0  0  0  0
    6.1239  -18.6274    0.0000 C   0  0  0  0  0  0  0  0  0  0  0  0
    7.2047  -17.5872    0.0000 C   0  0  0  0  0  0  0  0  0  0  0  0
    8.1140  -16.3943    0.0000 C   0  0  0  0  0  0  0  0  0  0  0  0
    8.8306  -15.0765    0.0000 C   0  0  0  0  0  0  0  0  0  0  0  0
    9.3376  -13.6648    0.0000 C   0  0  0  0  0  0  0  0  0  0  0  0
    9.6232  -12.1922    0.0000 C   0  0  0  0  0  0  0  0  0  0  0  0
    9.6806  -10.6933    0.0000 C   0  0  0  0  0  0  0  0  0  0  0  0
    9.5086   -9.2032    0.0000 C   0  0  0  0  0  0  0  0  0  0  0  0
    9.1111   -7.7569    0.0000 C   0  0  0  0  0  0  0  0  0  0  0  0
    8.4975   -6.3881    0.0000 C   0  0  0  0  0  0  0  0  0  0  0  0
    7.6822   -5.1290    0.0000 C   0  0  0  0  0  0  0  0  0  0  0  0
    6.6842   -4.0092    0.0000 C   0  0  0  0  0  0  0  0  0  0  0  0
    5.5270   -3.0549    0.0000 C   0  0  0  0  0  0  0  0  0  0  0  0
    4.2376   -2.2883    0.0000 C   0  0  0  0  0  0  0  0  0  0  0  0
    2.8464   -1.7276    0.0000 C   0  0  0  0  0  0  0  0  0  0  0  0
    1.3858   -1.3858    0.0000 C   0  0  0  0  0  0  0  0  0  0  0  0
    1.9598    0.0000    0.0000 O   0  0  0  0  0  0  0  0  0  0  0  0
    1.3858    1.3858    0.0000 C   0  0  0  0  0  0  0  0  0  0  0  0
    0.0000    1.9598    0.0000 C   0  0  0  0  0  0  0  0  0  0  0  0
   -1.3858    1.3858    0.0000 C   0  0  0  0  0  0  0  0  0  0  0  0
   -1.9598    0.0000    0.0000 C   0  0  0  0  0  0  0  0  0  0  0  0
   -1.3858   -1.3858    0.0000 C   0  0  0  0  0  0  0  0  0  0  0  0
   -0.0000   -1.9598    0.0000 O   0  0  0  0  0  0  0  0  0  0  0  0
  1  2  1  0
  2  3  2  0
  3  4  1  0
  4  5  2  0
  5  6  2  0
  6  7  1  0
  7  8  2  0
  8  9  1  0
  9 10  2  0
 10 11  1  0
 11 12  2  0
 12 13  1  0
 13 14  2  0
 14 15  1  0
 15 16  2  0
 16 17  1  0
 17 18  2  0
 18 19  1  0
 19 20  2  0
 20 21  1  0
 21 22  2  0
 22 23  1  0
 23 24  2  0
 24 25  1  0
 25 26  2  0
 26 27  1  0
 27 28  2  0
 28 29  1  0
 29 30  2  0
 30 31  1  0
 31 32  2  0
 32 33  1  0
 33 34  2  0
 34 35  1  0
 35 36  2  0
 36 37  1  0
 37 38  2  0
 38 39  1  0
 39 40  2  0
 40 41  1  0
 41 42  1  0
 42 43  1  0
 43 44  2  0
 44 45  1  0
 45 46  2  0
 46 47  1  0
 46  2  1  0
 47 40  1  0
M  END
>  <Title>  (1290) 
idABXPgen8

$$$$

     RDKit          2D

 29 33  0  0  0  0  0  0  0  0999 V2000
    3.0000    0.0000    0.0000 C   0  0  0  0  0  0  0  0  0  0  0  0
    1.5000    0.0000    0.0000 C   0  0  0  0  0  0  0  0  0  0  0  0
    0.7500   -1.2990    0.0000 C   0  0  0  0  0  0  0  0  0  0  0  0
   -0.7500   -1.2990    0.0000 C   0  0  0  0  0  0  0  0  0  0  0  0
   -1.5000    0.0000    0.0000 C   0  0  0  0  0  0  0  0  0  0  0  0
   -3.0000    0.0000    0.0000 C   0  0  0  0  0  0  0  0  0  0  0  0
   -3.8817   -1.2135    0.0000 N   0  0  0  0  0  0  0  0  0  0  0  0
   -5.3083   -0.7500    0.0000 N   0  0  0  0  0  0  0  0  0  0  0  0
   -5.3083    0.7500    0.0000 N   0  0  0  0  0  0  0  0  0  0  0  0
   -3.8817    1.2135    0.0000 N   0  0  0  0  0  0  0  0  0  0  0  0
   -3.4182    2.6401    0.0000 C   0  0  0  0  0  0  0  0  0  0  0  0
   -1.9509    2.9520    0.0000 C   0  0  0  0  0  0  0  0  0  0  0  0
   -1.4874    4.3786    0.0000 C   0  0  0  0  0  0  0  0  0  0  0  0
   -2.4911    5.4933    0.0000 C   0  0  0  0  0  0  0  0  0  0  0  0
   -2.0276    6.9199    0.0000 C   0  0  0  0  0  0  0  0  0  0  0  0
   -2.9093    8.1334    0.0000 C   0  0  0  0  0  0  0  0  0  0  0  0
   -2.0276    9.3469    0.0000 C   0  0  0  0  0  0  0  0  0  0  0  0
   -0.6010    8.8834    0.0000 C   0  0  0  0  0  0  0  0  0  0  0  0
   -0.6010    7.3834    0.0000 N   0  0  0  0  0  0  0  0  0  0  0  0
    0.6125    6.5017    0.0000 C   0  0  0  0  0  0  0  0  0  0  0  0
    0.4557    5.0099    0.0000 C   0  0  0  0  0  0  0  0  0  0  0  0
    1.6693    4.1283    0.0000 C   0  0  0  0  0  0  0  0  0  0  0  0
    3.0396    4.7384    0.0000 C   0  0  0  0  0  0  0  0  0  0  0  0
    3.1964    6.2301    0.0000 C   0  0  0  0  0  0  0  0  0  0  0  0
    1.9829    7.1118    0.0000 C   0  0  0  0  0  0  0  0  0  0  0  0
   -3.9583    5.1814    0.0000 C   0  0  0  0  0  0  0  0  0  0  0  0
   -4.4218    3.7548    0.0000 C   0  0  0  0  0  0  0  0  0  0  0  0
   -0.7500    1.2990    0.0000 C   0  0  0  0  0  0  0  0  0  0  0  0
    0.7500    1.2990    0.0000 N   0  0  0  0  0  0  0  0  0  0  0  0
  1  2  1  0
  2  3  2  0
  3  4  1  0
  4  5  2  0
  5  6  1  0
  6  7  2  0
  7  8  1  0
  8  9  2  0
  9 10  1  0
 10 11  1  0
 11 12  2  0
 12 13  1  0
 13 14  2  0
 14 15  1  0
 15 16  2  0
 16 17  1  0
 17 18  2  0
 18 19  1  0
 19 20  1  0
 20 21  2  0
 21 22  1  0
 22 23  2  0
 23 24  1  0
 24 25  2  0
 14 26  1  0
 26 27  2  0
  5 28  1  0
 28 29  1  0
 29  2  1  0
 10  6  1  0
 27 11  1  0
 19 15  1  0
 25 20  1  0
M  END
>  <Title>  (1291) 
idABXQgen8

$$$$

     RDKit          2D

 51 58  0  0  0  0  0  0  0  0999 V2000
    7.0348    8.9662    0.0000 C   0  0  0  0  0  0  0  0  0  0  0  0
    5.5348    8.9662    0.0000 C   0  0  0  0  0  0  0  0  0  0  0  0
    4.7848   10.2652    0.0000 C   0  0  0  0  0  0  0  0  0  0  0  0
    3.2848   10.2652    0.0000 C   0  0  0  0  0  0  0  0  0  0  0  0
    2.5348    8.9662    0.0000 C   0  0  0  0  0  0  0  0  0  0  0  0
    1.0348    8.9662    0.0000 C   0  0  0  0  0  0  0  0  0  0  0  0
    0.2848   10.2652    0.0000 O   0  0  0  0  0  0  0  0  0  0  0  0
    0.2848    7.6672    0.0000 N   0  0  0  0  0  0  0  0  0  0  0  0
   -1.2152    7.6672    0.0000 C   0  0  0  0  0  0  0  0  0  0  0  0
   -2.0969    8.8807    0.0000 N   0  0  0  0  0  0  0  0  0  0  0  0
   -3.5235    8.4172    0.0000 N   0  0  0  0  0  0  0  0  0  0  0  0
   -3.5235    6.9172    0.0000 N   0  0  0  0  0  0  0  0  0  0  0  0
   -2.0969    6.4536    0.0000 N   0  0  0  0  0  0  0  0  0  0  0  0
   -1.6334    5.0270    0.0000 C   0  0  0  0  0  0  0  0  0  0  0  0
   -0.1343    4.9747    0.0000 C   0  0  0  0  0  0  0  0  0  0  0  0
    0.9804    3.9710    0.0000 C   0  0  0  0  0  0  0  0  0  0  0  0
    1.1892    2.4856    0.0000 C   0  0  0  0  0  0  0  0  0  0  0  0
    2.6564    2.1737    0.0000 C   0  0  0  0  0  0  0  0  0  0  0  0
    3.7711    3.1774    0.0000 C   0  0  0  0  0  0  0  0  0  0  0  0
    5.0702    2.4274    0.0000 C   0  0  0  0  0  0  0  0  0  0  0  0
    4.7583    0.9602    0.0000 C   0  0  0  0  0  0  0  0  0  0  0  0
    5.7620   -0.1545    0.0000 C   0  0  0  0  0  0  0  0  0  0  0  0
    5.2985   -1.5811    0.0000 C   0  0  0  0  0  0  0  0  0  0  0  0
    6.3022   -2.6958    0.0000 C   0  0  0  0  0  0  0  0  0  0  0  0
    7.7694   -2.3839    0.0000 C   0  0  0  0  0  0  0  0  0  0  0  0
    8.2329   -0.9574    0.0000 C   0  0  0  0  0  0  0  0  0  0  0  0
    7.2292    0.1574    0.0000 C   0  0  0  0  0  0  0  0  0  0  0  0
    3.2665    0.8034    0.0000 C   0  0  0  0  0  0  0  0  0  0  0  0
    2.5165   -0.4956    0.0000 O   0  0  0  0  0  0  0  0  0  0  0  0
    0.3943    1.2135    0.0000 C   0  0  0  0  0  0  0  0  0  0  0  0
    1.2760    0.0000    0.0000 N   0  0  0  0  0  0  0  0  0  0  0  0
    0.3943   -1.2135    0.0000 N   0  0  0  0  0  0  0  0  0  0  0  0
   -1.0323   -0.7500    0.0000 N   0  0  0  0  0  0  0  0  0  0  0  0
   -1.0323    0.7500    0.0000 N   0  0  0  0  0  0  0  0  0  0  0  0
   -2.4231    1.3119    0.0000 C   0  0  0  0  0  0  0  0  0  0  0  0
   -3.8248    0.7779    0.0000 C   0  0  0  0  0  0  0  0  0  0  0  0
   -5.1163    1.5408    0.0000 C   0  0  0  0  0  0  0  0  0  0  0  0
   -5.3250    3.0262    0.0000 C   0  0  0  0  0  0  0  0  0  0  0  0
   -6.7539    3.4826    0.0000 C   0  0  0  0  0  0  0  0  0  0  0  0
   -7.0731    4.9482    0.0000 C   0  0  0  0  0  0  0  0  0  0  0  0
   -8.5020    5.4046    0.0000 C   0  0  0  0  0  0  0  0  0  0  0  0
   -9.6117    4.3954    0.0000 C   0  0  0  0  0  0  0  0  0  0  0  0
   -9.2925    2.9297    0.0000 C   0  0  0  0  0  0  0  0  0  0  0  0
   -7.8636    2.4733    0.0000 C   0  0  0  0  0  0  0  0  0  0  0  0
   -4.2938    4.1155    0.0000 C   0  0  0  0  0  0  0  0  0  0  0  0
   -2.8154    4.1036    0.0000 C   0  0  0  0  0  0  0  0  0  0  0  0
   -3.1273    2.6363    0.0000 C   0  0  0  0  0  0  0  0  0  0  0  0
   -4.6127    2.4276    0.0000 O   0  0  0  0  0  0  0  0  0  0  0  0
    3.2848    7.6672    0.0000 C   0  0  0  0  0  0  0  0  0  0  0  0
    2.5348    6.3681    0.0000 O   0  0  0  0  0  0  0  0  0  0  0  0
    4.7848    7.6672    0.0000 N   0  0  0  0  0  0  0  0  0  0  0  0
  1  2  1  0
  2  3  2  0
  3  4  1  0
  4  5  2  0
  5  6  1  0
  6  7  2  0
  6  8  1  0
  8  9  1  0
  9 10  2  0
 10 11  1  0
 11 12  2  0
 12 13  1  0
 13 14  1  0
 14 15  2  0
 15 16  1  0
 16 17  2  0
 17 18  1  0
 18 19  2  0
 19 20  1  0
 20 21  2  0
 21 22  1  0
 22 23  2  0
 23 24  1  0
 24 25  2  0
 25 26  1  0
 26 27  2  0
 21 28  1  0
 28 29  2  0
 17 30  1  0
 30 31  2  0
 31 32  1  0
 32 33  2  0
 33 34  1  0
 34 35  1  0
 35 36  2  0
 36 37  1  0
 37 38  2  0
 38 39  1  0
 39 40  2  0
 40 41  1  0
 41 42  2  0
 42 43  1  0
 43 44  2  0
 38 45  1  0
 45 46  2  0
 46 47  1  0
 47 48  2  0
  5 49  1  0
 49 50  2  0
 49 51  1  0
 51  2  1  0
 13  9  1  0
 46 14  1  0
 28 18  1  0
 34 30  1  0
 47 35  1  0
 27 22  1  0
 44 39  1  0
M  END
>  <Title>  (1292) 
idABXRgen8

$$$$

     RDKit          2D

 58 66  0  0  0  0  0  0  0  0999 V2000
    7.0168   10.7368    0.0000 C   0  0  0  0  0  0  0  0  0  0  0  0
    5.8582    9.7841    0.0000 C   0  0  0  0  0  0  0  0  0  0  0  0
    6.1039    8.3044    0.0000 C   0  0  0  0  0  0  0  0  0  0  0  0
    4.9453    7.3517    0.0000 C   0  0  0  0  0  0  0  0  0  0  0  0
    3.5410    7.8788    0.0000 C   0  0  0  0  0  0  0  0  0  0  0  0
    2.3823    6.9261    0.0000 C   0  0  0  0  0  0  0  0  0  0  0  0
    0.9780    7.4532    0.0000 C   0  0  0  0  0  0  0  0  0  0  0  0
   -0.1806    6.5005    0.0000 C   0  0  0  0  0  0  0  0  0  0  0  0
   -1.5850    7.0276    0.0000 C   0  0  0  0  0  0  0  0  0  0  0  0
   -2.7436    6.0749    0.0000 C   0  0  0  0  0  0  0  0  0  0  0  0
   -4.1954    6.4523    0.0000 N   0  0  0  0  0  0  0  0  0  0  0  0
   -5.0029    5.1882    0.0000 N   0  0  0  0  0  0  0  0  0  0  0  0
   -4.0502    4.0296    0.0000 N   0  0  0  0  0  0  0  0  0  0  0  0
   -2.6539    4.5776    0.0000 N   0  0  0  0  0  0  0  0  0  0  0  0
   -1.3898    3.7701    0.0000 C   0  0  0  0  0  0  0  0  0  0  0  0
   -1.3001    2.2727    0.0000 C   0  0  0  0  0  0  0  0  0  0  0  0
    0.1516    1.8954    0.0000 C   0  0  0  0  0  0  0  0  0  0  0  0
    0.9591    3.1594    0.0000 C   0  0  0  0  0  0  0  0  0  0  0  0
    0.0065    4.3181    0.0000 C   0  0  0  0  0  0  0  0  0  0  0  0
    0.0651    5.0208    0.0000 C   0  0  0  0  0  0  0  0  0  0  0  0
    1.4694    4.4937    0.0000 C   0  0  0  0  0  0  0  0  0  0  0  0
    2.6281    5.4464    0.0000 C   0  0  0  0  0  0  0  0  0  0  0  0
    4.0324    4.9193    0.0000 N   0  0  0  0  0  0  0  0  0  0  0  0
    5.2843    5.7457    0.0000 N   0  0  0  0  0  0  0  0  0  0  0  0
    6.4570    4.8104    0.0000 N   0  0  0  0  0  0  0  0  0  0  0  0
    5.9300    3.4061    0.0000 N   0  0  0  0  0  0  0  0  0  0  0  0
    4.4315    3.4734    0.0000 C   0  0  0  0  0  0  0  0  0  0  0  0
    3.4962    2.3006    0.0000 N   0  0  0  0  0  0  0  0  0  0  0  0
    4.0442    0.9043    0.0000 C   0  0  0  0  0  0  0  0  0  0  0  0
    5.5275    0.6808    0.0000 O   0  0  0  0  0  0  0  0  0  0  0  0
    3.1090   -0.2684    0.0000 C   0  0  0  0  0  0  0  0  0  0  0  0
    1.6466    0.0654    0.0000 C   0  0  0  0  0  0  0  0  0  0  0  0
    0.4739   -0.8699    0.0000 C   0  0  0  0  0  0  0  0  0  0  0  0
    0.4739   -2.3699    0.0000 C   0  0  0  0  0  0  0  0  0  0  0  0
   -0.8776   -3.0207    0.0000 C   0  0  0  0  0  0  0  0  0  0  0  0
    1.6466   -3.3051    0.0000 C   0  0  0  0  0  0  0  0  0  0  0  0
    3.1090   -2.9713    0.0000 C   0  0  0  0  0  0  0  0  0  0  0  0
    4.0442   -4.1441    0.0000 O   0  0  0  0  0  0  0  0  0  0  0  0
    3.7598   -1.6199    0.0000 N   0  0  0  0  0  0  0  0  0  0  0  0
    3.2952    9.3585    0.0000 C   0  0  0  0  0  0  0  0  0  0  0  0
    1.8909    9.8856    0.0000 C   0  0  0  0  0  0  0  0  0  0  0  0
    0.6390    9.0593    0.0000 C   0  0  0  0  0  0  0  0  0  0  0  0
   -0.5337    9.9945    0.0000 C   0  0  0  0  0  0  0  0  0  0  0  0
   -0.0067   11.3988    0.0000 C   0  0  0  0  0  0  0  0  0  0  0  0
   -0.8330   12.6507    0.0000 C   0  0  0  0  0  0  0  0  0  0  0  0
   -2.3315   12.7180    0.0000 N   0  0  0  0  0  0  0  0  0  0  0  0
   -2.7306   14.1639    0.0000 N   0  0  0  0  0  0  0  0  0  0  0  0
   -1.4787   14.9903    0.0000 N   0  0  0  0  0  0  0  0  0  0  0  0
   -0.3060   14.0551    0.0000 N   0  0  0  0  0  0  0  0  0  0  0  0
    1.1400   14.4541    0.0000 C   0  0  0  0  0  0  0  0  0  0  0  0
    2.2086   13.4014    0.0000 C   0  0  0  0  0  0  0  0  0  0  0  0
    3.6545   13.8005    0.0000 C   0  0  0  0  0  0  0  0  0  0  0  0
    4.0319   15.2522    0.0000 C   0  0  0  0  0  0  0  0  0  0  0  0
    2.9633   16.3049    0.0000 C   0  0  0  0  0  0  0  0  0  0  0  0
    1.5174   15.9059    0.0000 C   0  0  0  0  0  0  0  0  0  0  0  0
    1.4918   11.3315    0.0000 C   0  0  0  0  0  0  0  0  0  0  0  0
    2.4271   12.5043    0.0000 O   0  0  0  0  0  0  0  0  0  0  0  0
    4.4539   10.3112    0.0000 C   0  0  0  0  0  0  0  0  0  0  0  0
  1  2  1  0
  2  3  2  0
  3  4  1  0
  4  5  2  0
  5  6  1  0
  6  7  2  0
  7  8  1  0
  8  9  1  0
  9 10  1  0
 10 11  2  0
 11 12  1  0
 12 13  2  0
 13 14  1  0
 14 15  1  0
 15 16  1  0
 16 17  2  0
 17 18  1  0
 18 19  2  0
  8 20  2  0
 20 21  1  0
 21 22  2  0
 22 23  1  0
 23 24  1  0
 24 25  2  0
 25 26  1  0
 26 27  2  0
 27 28  1  0
 28 29  1  0
 29 30  2  0
 29 31  1  0
 31 32  2  0
 32 33  1  0
 33 34  2  0
 34 35  1  0
 34 36  1  0
 36 37  1  0
 37 38  2  0
 37 39  1  0
  5 40  1  0
 40 41  1  0
 41 42  2  0
 42 43  1  0
 43 44  2  0
 44 45  1  0
 45 46  2  0
 46 47  1  0
 47 48  2  0
 48 49  1  0
 49 50  1  0
 50 51  2  0
 51 52  1  0
 52 53  2  0
 53 54  1  0
 54 55  2  0
 44 56  1  0
 56 57  2  0
 40 58  2  0
 58  2  1  0
 22  6  1  0
 27 23  1  0
 39 31  1  0
 56 41  1  0
 14 10  1  0
 19 15  1  0
 49 45  1  0
 55 50  1  0
M  END
>  <Title>  (1293) 
idABXSgen8

$$$$

     RDKit          2D

 14 15  0  0  0  0  0  0  0  0999 V2000
    1.6798    5.9095    0.0000 C   0  0  0  0  0  0  0  0  0  0  0  0
    1.6798    4.4095    0.0000 C   0  0  0  0  0  0  0  0  0  0  0  0
    2.9789    3.6595    0.0000 C   0  0  0  0  0  0  0  0  0  0  0  0
    2.9789    2.1595    0.0000 C   0  0  0  0  0  0  0  0  0  0  0  0
    1.6798    1.4095    0.0000 C   0  0  0  0  0  0  0  0  0  0  0  0
    2.1929    0.0000    0.0000 C   0  0  0  0  0  0  0  0  0  0  0  0
    1.6798   -1.4095    0.0000 C   0  0  0  0  0  0  0  0  0  0  0  0
    0.3808   -2.1595    0.0000 C   0  0  0  0  0  0  0  0  0  0  0  0
   -1.0964   -1.8991    0.0000 C   0  0  0  0  0  0  0  0  0  0  0  0
   -2.0606   -0.7500    0.0000 C   0  0  0  0  0  0  0  0  0  0  0  0
   -2.0606    0.7500    0.0000 C   0  0  0  0  0  0  0  0  0  0  0  0
   -1.0964    1.8991    0.0000 C   0  0  0  0  0  0  0  0  0  0  0  0
    0.3808    2.1595    0.0000 C   0  0  0  0  0  0  0  0  0  0  0  0
    0.3808    3.6595    0.0000 C   0  0  0  0  0  0  0  0  0  0  0  0
  1  2  1  0
  2  3  2  0
  3  4  1  0
  4  5  2  0
  5  6  1  0
  6  7  2  0
  7  8  1  0
  8  9  2  0
  9 10  1  0
 10 11  2  0
 11 12  1  0
 12 13  2  0
 13 14  1  0
 14  2  1  0
 13  5  1  0
M  END
>  <Title>  (1294) 
idABXTgen8

$$$$

     RDKit          2D

 35 40  0  0  0  0  0  0  0  0999 V2000
    3.0000    0.0000    0.0000 C   0  0  0  0  0  0  0  0  0  0  0  0
    1.5000    0.0000    0.0000 C   0  0  0  0  0  0  0  0  0  0  0  0
    0.7500   -1.2990    0.0000 C   0  0  0  0  0  0  0  0  0  0  0  0
   -0.7500   -1.2990    0.0000 C   0  0  0  0  0  0  0  0  0  0  0  0
   -1.5000    0.0000    0.0000 C   0  0  0  0  0  0  0  0  0  0  0  0
   -3.0000    0.0000    0.0000 C   0  0  0  0  0  0  0  0  0  0  0  0
   -3.8817   -1.2135    0.0000 N   0  0  0  0  0  0  0  0  0  0  0  0
   -5.3083   -0.7500    0.0000 N   0  0  0  0  0  0  0  0  0  0  0  0
   -5.3083    0.7500    0.0000 N   0  0  0  0  0  0  0  0  0  0  0  0
   -3.8817    1.2135    0.0000 N   0  0  0  0  0  0  0  0  0  0  0  0
   -3.4182    2.6401    0.0000 C   0  0  0  0  0  0  0  0  0  0  0  0
   -1.9509    2.9520    0.0000 C   0  0  0  0  0  0  0  0  0  0  0  0
   -1.4874    4.3786    0.0000 C   0  0  0  0  0  0  0  0  0  0  0  0
   -2.4911    5.4933    0.0000 C   0  0  0  0  0  0  0  0  0  0  0  0
   -2.0276    6.9199    0.0000 C   0  0  0  0  0  0  0  0  0  0  0  0
   -2.9093    8.1334    0.0000 N   0  0  0  0  0  0  0  0  0  0  0  0
   -2.0276    9.3469    0.0000 N   0  0  0  0  0  0  0  0  0  0  0  0
   -0.6010    8.8834    0.0000 N   0  0  0  0  0  0  0  0  0  0  0  0
   -0.6010    7.3834    0.0000 N   0  0  0  0  0  0  0  0  0  0  0  0
    0.6125    6.5017    0.0000 C   0  0  0  0  0  0  0  0  0  0  0  0
    0.4557    5.0099    0.0000 C   0  0  0  0  0  0  0  0  0  0  0  0
    1.6693    4.1283    0.0000 C   0  0  0  0  0  0  0  0  0  0  0  0
    3.0396    4.7384    0.0000 C   0  0  0  0  0  0  0  0  0  0  0  0
    3.1964    6.2301    0.0000 C   0  0  0  0  0  0  0  0  0  0  0  0
    1.9829    7.1118    0.0000 C   0  0  0  0  0  0  0  0  0  0  0  0
    2.1396    8.6036    0.0000 C   0  0  0  0  0  0  0  0  0  0  0  0
    3.5100    9.2137    0.0000 C   0  0  0  0  0  0  0  0  0  0  0  0
    3.6668   10.7055    0.0000 C   0  0  0  0  0  0  0  0  0  0  0  0
    2.4532   11.5872    0.0000 C   0  0  0  0  0  0  0  0  0  0  0  0
    1.0829   10.9771    0.0000 C   0  0  0  0  0  0  0  0  0  0  0  0
    0.9261    9.4853    0.0000 C   0  0  0  0  0  0  0  0  0  0  0  0
   -3.9583    5.1814    0.0000 C   0  0  0  0  0  0  0  0  0  0  0  0
   -4.4218    3.7548    0.0000 C   0  0  0  0  0  0  0  0  0  0  0  0
   -0.7500    1.2990    0.0000 C   0  0  0  0  0  0  0  0  0  0  0  0
    0.7500    1.2990    0.0000 C   0  0  0  0  0  0  0  0  0  0  0  0
  1  2  1  0
  2  3  2  0
  3  4  1  0
  4  5  2  0
  5  6  1  0
  6  7  2  0
  7  8  1  0
  8  9  2  0
  9 10  1  0
 10 11  1  0
 11 12  2  0
 12 13  1  0
 13 14  2  0
 14 15  1  0
 15 16  2  0
 16 17  1  0
 17 18  2  0
 18 19  1  0
 19 20  1  0
 20 21  2  0
 21 22  1  0
 22 23  2  0
 23 24  1  0
 24 25  2  0
 25 26  1  0
 26 27  2  0
 27 28  1  0
 28 29  2  0
 29 30  1  0
 30 31  2  0
 14 32  1  0
 32 33  2  0
  5 34  1  0
 34 35  2  0
 35  2  1  0
 10  6  1  0
 33 11  1  0
 19 15  1  0
 25 20  1  0
 31 26  1  0
M  END
>  <Title>  (1295) 
idABXUgen8

$$$$

     RDKit          2D

 24 27  0  0  0  0  0  0  0  0999 V2000
    3.0000    0.0000    0.0000 O   0  0  0  0  0  0  0  0  0  0  0  0
    1.5000    0.0000    0.0000 C   0  0  0  0  0  0  0  0  0  0  0  0
    0.7500   -1.2990    0.0000 C   0  0  0  0  0  0  0  0  0  0  0  0
   -0.7500   -1.2990    0.0000 C   0  0  0  0  0  0  0  0  0  0  0  0
   -1.5000    0.0000    0.0000 C   0  0  0  0  0  0  0  0  0  0  0  0
   -3.0000    0.0000    0.0000 C   0  0  0  0  0  0  0  0  0  0  0  0
   -3.8817   -1.2135    0.0000 N   0  0  0  0  0  0  0  0  0  0  0  0
   -5.3083   -0.7500    0.0000 N   0  0  0  0  0  0  0  0  0  0  0  0
   -5.3083    0.7500    0.0000 N   0  0  0  0  0  0  0  0  0  0  0  0
   -3.8817    1.2135    0.0000 N   0  0  0  0  0  0  0  0  0  0  0  0
   -3.4182    2.6401    0.0000 C   0  0  0  0  0  0  0  0  0  0  0  0
   -1.9509    2.9520    0.0000 C   0  0  0  0  0  0  0  0  0  0  0  0
   -1.4874    4.3786    0.0000 C   0  0  0  0  0  0  0  0  0  0  0  0
   -2.4911    5.4933    0.0000 C   0  0  0  0  0  0  0  0  0  0  0  0
   -2.0276    6.9199    0.0000 C   0  0  0  0  0  0  0  0  0  0  0  0
   -0.5604    7.2317    0.0000 C   0  0  0  0  0  0  0  0  0  0  0  0
   -0.0968    8.6583    0.0000 C   0  0  0  0  0  0  0  0  0  0  0  0
   -1.1005    9.7730    0.0000 C   0  0  0  0  0  0  0  0  0  0  0  0
   -2.5677    9.4612    0.0000 C   0  0  0  0  0  0  0  0  0  0  0  0
   -3.0313    8.0346    0.0000 C   0  0  0  0  0  0  0  0  0  0  0  0
   -3.9583    5.1814    0.0000 C   0  0  0  0  0  0  0  0  0  0  0  0
   -4.4218    3.7548    0.0000 C   0  0  0  0  0  0  0  0  0  0  0  0
   -0.7500    1.2990    0.0000 C   0  0  0  0  0  0  0  0  0  0  0  0
    0.7500    1.2990    0.0000 C   0  0  0  0  0  0  0  0  0  0  0  0
  1  2  1  0
  2  3  2  0
  3  4  1  0
  4  5  2  0
  5  6  1  0
  6  7  2  0
  7  8  1  0
  8  9  2  0
  9 10  1  0
 10 11  1  0
 11 12  2  0
 12 13  1  0
 13 14  2  0
 14 15  1  0
 15 16  2  0
 16 17  1  0
 17 18  2  0
 18 19  1  0
 19 20  2  0
 14 21  1  0
 21 22  2  0
  5 23  1  0
 23 24  2  0
 24  2  1  0
 10  6  1  0
 22 11  1  0
 20 15  1  0
M  END
>  <Title>  (1296) 
idABXVgen8

$$$$

     RDKit          2D

 58 65  0  0  0  0  0  0  0  0999 V2000
    3.0000    0.0000    0.0000 C   0  0  0  0  0  0  0  0  0  0  0  0
    1.5000    0.0000    0.0000 C   0  0  0  0  0  0  0  0  0  0  0  0
    0.7500   -1.2990    0.0000 C   0  0  0  0  0  0  0  0  0  0  0  0
   -0.7500   -1.2990    0.0000 C   0  0  0  0  0  0  0  0  0  0  0  0
   -1.5000    0.0000    0.0000 C   0  0  0  0  0  0  0  0  0  0  0  0
   -3.0000    0.0000    0.0000 C   0  0  0  0  0  0  0  0  0  0  0  0
   -3.7500   -1.2990    0.0000 O   0  0  0  0  0  0  0  0  0  0  0  0
   -3.7500    1.2990    0.0000 N   0  0  0  0  0  0  0  0  0  0  0  0
   -5.2500    1.2990    0.0000 C   0  0  0  0  0  0  0  0  0  0  0  0
   -6.1317    0.0855    0.0000 N   0  0  0  0  0  0  0  0  0  0  0  0
   -7.5583    0.5490    0.0000 N   0  0  0  0  0  0  0  0  0  0  0  0
   -7.5583    2.0490    0.0000 N   0  0  0  0  0  0  0  0  0  0  0  0
   -6.1317    2.5126    0.0000 N   0  0  0  0  0  0  0  0  0  0  0  0
   -5.6682    3.9391    0.0000 C   0  0  0  0  0  0  0  0  0  0  0  0
   -4.2009    4.2510    0.0000 C   0  0  0  0  0  0  0  0  0  0  0  0
   -3.7374    5.6776    0.0000 C   0  0  0  0  0  0  0  0  0  0  0  0
   -4.7411    6.7923    0.0000 C   0  0  0  0  0  0  0  0  0  0  0  0
   -4.2776    8.2189    0.0000 C   0  0  0  0  0  0  0  0  0  0  0  0
   -5.2813    9.3336    0.0000 O   0  0  0  0  0  0  0  0  0  0  0  0
   -2.8104    8.5308    0.0000 N   0  0  0  0  0  0  0  0  0  0  0  0
   -2.3468    9.9574    0.0000 C   0  0  0  0  0  0  0  0  0  0  0  0
   -3.3505   11.0721    0.0000 O   0  0  0  0  0  0  0  0  0  0  0  0
   -0.8796   10.2692    0.0000 N   0  0  0  0  0  0  0  0  0  0  0  0
   -0.4161   11.6958    0.0000 C   0  0  0  0  0  0  0  0  0  0  0  0
   -1.2978   12.9093    0.0000 N   0  0  0  0  0  0  0  0  0  0  0  0
   -0.4161   14.1229    0.0000 N   0  0  0  0  0  0  0  0  0  0  0  0
    1.0105   13.6593    0.0000 N   0  0  0  0  0  0  0  0  0  0  0  0
    1.0105   12.1593    0.0000 N   0  0  0  0  0  0  0  0  0  0  0  0
    2.2240   11.2777    0.0000 C   0  0  0  0  0  0  0  0  0  0  0  0
    2.0672    9.7859    0.0000 C   0  0  0  0  0  0  0  0  0  0  0  0
    3.2808    8.9042    0.0000 C   0  0  0  0  0  0  0  0  0  0  0  0
    4.6511    9.5143    0.0000 C   0  0  0  0  0  0  0  0  0  0  0  0
    4.8079   11.0061    0.0000 C   0  0  0  0  0  0  0  0  0  0  0  0
    3.5943   11.8878    0.0000 C   0  0  0  0  0  0  0  0  0  0  0  0
   -6.2083    6.4805    0.0000 C   0  0  0  0  0  0  0  0  0  0  0  0
   -6.6718    5.0539    0.0000 C   0  0  0  0  0  0  0  0  0  0  0  0
   -8.1391    4.7420    0.0000 C   0  0  0  0  0  0  0  0  0  0  0  0
   -9.1428    5.8567    0.0000 C   0  0  0  0  0  0  0  0  0  0  0  0
  -10.6100    5.5448    0.0000 C   0  0  0  0  0  0  0  0  0  0  0  0
  -11.0735    4.1183    0.0000 C   0  0  0  0  0  0  0  0  0  0  0  0
  -12.5407    3.8064    0.0000 C   0  0  0  0  0  0  0  0  0  0  0  0
  -13.0043    2.3798    0.0000 O   0  0  0  0  0  0  0  0  0  0  0  0
  -13.5444    4.9211    0.0000 N   0  0  0  0  0  0  0  0  0  0  0  0
  -15.0117    4.6092    0.0000 C   0  0  0  0  0  0  0  0  0  0  0  0
  -15.6218    3.2389    0.0000 N   0  0  0  0  0  0  0  0  0  0  0  0
  -17.1135    3.3957    0.0000 N   0  0  0  0  0  0  0  0  0  0  0  0
  -17.4254    4.8629    0.0000 N   0  0  0  0  0  0  0  0  0  0  0  0
  -16.1264    5.6129    0.0000 N   0  0  0  0  0  0  0  0  0  0  0  0
  -15.9696    7.1047    0.0000 C   0  0  0  0  0  0  0  0  0  0  0  0
  -14.5993    7.7148    0.0000 C   0  0  0  0  0  0  0  0  0  0  0  0
  -14.4425    9.2066    0.0000 C   0  0  0  0  0  0  0  0  0  0  0  0
  -15.6560   10.0883    0.0000 C   0  0  0  0  0  0  0  0  0  0  0  0
  -17.0263    9.4782    0.0000 C   0  0  0  0  0  0  0  0  0  0  0  0
  -17.1831    7.9864    0.0000 C   0  0  0  0  0  0  0  0  0  0  0  0
  -10.0698    3.0035    0.0000 C   0  0  0  0  0  0  0  0  0  0  0  0
   -8.6026    3.3154    0.0000 C   0  0  0  0  0  0  0  0  0  0  0  0
   -0.7500    1.2990    0.0000 C   0  0  0  0  0  0  0  0  0  0  0  0
    0.7500    1.2990    0.0000 C   0  0  0  0  0  0  0  0  0  0  0  0
  1  2  1  0
  2  3  2  0
  3  4  1  0
  4  5  2  0
  5  6  1  0
  6  7  2  0
  6  8  1  0
  8  9  1  0
  9 10  2  0
 10 11  1  0
 11 12  2  0
 12 13  1  0
 13 14  1  0
 14 15  2  0
 15 16  1  0
 16 17  2  0
 17 18  1  0
 18 19  2  0
 18 20  1  0
 20 21  1  0
 21 22  2  0
 21 23  1  0
 23 24  1  0
 24 25  2  0
 25 26  1  0
 26 27  2  0
 27 28  1  0
 28 29  1  0
 29 30  2  0
 30 31  1  0
 31 32  2  0
 32 33  1  0
 33 34  2  0
 17 35  1  0
 35 36  2  0
 36 37  1  0
 37 38  2  0
 38 39  1  0
 39 40  2  0
 40 41  1  0
 41 42  2  0
 41 43  1  0
 43 44  1  0
 44 45  2  0
 45 46  1  0
 46 47  2  0
 47 48  1  0
 48 49  1  0
 49 50  2  0
 50 51  1  0
 51 52  2  0
 52 53  1  0
 53 54  2  0
 40 55  1  0
 55 56  2  0
  5 57  1  0
 57 58  2  0
 58  2  1  0
 13  9  1  0
 36 14  1  0
 56 37  1  0
 28 24  1  0
 34 29  1  0
 48 44  1  0
 54 49  1  0
M  END
>  <Title>  (1297) 
idABXWgen8

$$$$

     RDKit          2D

 17 17  0  0  0  0  0  0  0  0999 V2000
    5.6205   -1.2990    0.0000 C   0  0  0  0  0  0  0  0  0  0  0  0
    4.8705    0.0000    0.0000 O   0  0  0  0  0  0  0  0  0  0  0  0
    3.3705    0.0000    0.0000 C   0  0  0  0  0  0  0  0  0  0  0  0
    3.0367   -1.4624    0.0000 C   0  0  0  0  0  0  0  0  0  0  0  0
    2.1015   -2.6351    0.0000 C   0  0  0  0  0  0  0  0  0  0  0  0
    0.7500   -3.2860    0.0000 C   0  0  0  0  0  0  0  0  0  0  0  0
   -0.7500   -3.2860    0.0000 C   0  0  0  0  0  0  0  0  0  0  0  0
   -2.1015   -2.6351    0.0000 C   0  0  0  0  0  0  0  0  0  0  0  0
   -3.0367   -1.4624    0.0000 C   0  0  0  0  0  0  0  0  0  0  0  0
   -3.3705    0.0000    0.0000 C   0  0  0  0  0  0  0  0  0  0  0  0
   -3.0367    1.4624    0.0000 C   0  0  0  0  0  0  0  0  0  0  0  0
   -2.1015    2.6351    0.0000 C   0  0  0  0  0  0  0  0  0  0  0  0
   -0.7500    3.2860    0.0000 C   0  0  0  0  0  0  0  0  0  0  0  0
    0.7500    3.2860    0.0000 C   0  0  0  0  0  0  0  0  0  0  0  0
    1.0838    4.7484    0.0000 C   0  0  0  0  0  0  0  0  0  0  0  0
    2.1015    2.6351    0.0000 C   0  0  0  0  0  0  0  0  0  0  0  0
    3.0367    1.4624    0.0000 C   0  0  0  0  0  0  0  0  0  0  0  0
  1  2  1  0
  2  3  1  0
  3  4  2  0
  4  5  1  0
  5  6  2  0
  6  7  1  0
  7  8  2  0
  8  9  1  0
  9 10  2  0
 10 11  1  0
 11 12  2  0
 12 13  1  0
 13 14  2  0
 14 15  1  0
 14 16  1  0
 16 17  2  0
 17  3  1  0
M  END
>  <Title>  (1298) 
idABXXgen8

$$$$

     RDKit          2D

  9  9  0  0  0  0  0  0  0  0999 V2000
    3.4598   -0.0000    0.0000 O   0  0  0  0  0  0  0  0  0  0  0  0
    1.9598    0.0000    0.0000 C   0  0  0  0  0  0  0  0  0  0  0  0
    1.3858   -1.3858    0.0000 C   0  0  0  0  0  0  0  0  0  0  0  0
   -0.0000   -1.9598    0.0000 C   0  0  0  0  0  0  0  0  0  0  0  0
   -1.3858   -1.3858    0.0000 C   0  0  0  0  0  0  0  0  0  0  0  0
   -1.9598    0.0000    0.0000 C   0  0  0  0  0  0  0  0  0  0  0  0
   -1.3858    1.3858    0.0000 C   0  0  0  0  0  0  0  0  0  0  0  0
    0.0000    1.9598    0.0000 C   0  0  0  0  0  0  0  0  0  0  0  0
    1.3858    1.3858    0.0000 C   0  0  0  0  0  0  0  0  0  0  0  0
  1  2  1  0
  2  3  2  0
  3  4  1  0
  4  5  2  0
  5  6  1  0
  6  7  2  0
  7  8  1  0
  8  9  2  0
  9  2  1  0
M  END
>  <Title>  (1299) 
idABXYgen8

$$$$

     RDKit          2D

 43 49  0  0  0  0  0  0  0  0999 V2000
   -6.4231   -5.8245    0.0000 C   0  0  0  0  0  0  0  0  0  0  0  0
   -5.0351   -5.2557    0.0000 O   0  0  0  0  0  0  0  0  0  0  0  0
   -4.8338   -3.7693    0.0000 C   0  0  0  0  0  0  0  0  0  0  0  0
   -6.0204   -2.8517    0.0000 C   0  0  0  0  0  0  0  0  0  0  0  0
   -5.8190   -1.3652    0.0000 C   0  0  0  0  0  0  0  0  0  0  0  0
   -4.4311   -0.7964    0.0000 C   0  0  0  0  0  0  0  0  0  0  0  0
   -4.2297    0.6900    0.0000 C   0  0  0  0  0  0  0  0  0  0  0  0
   -5.3139    1.7266    0.0000 N   0  0  0  0  0  0  0  0  0  0  0  0
   -4.6631    3.0781    0.0000 N   0  0  0  0  0  0  0  0  0  0  0  0
   -3.1767    2.8767    0.0000 N   0  0  0  0  0  0  0  0  0  0  0  0
   -2.9088    1.4008    0.0000 N   0  0  0  0  0  0  0  0  0  0  0  0
   -1.5574    0.7500    0.0000 C   0  0  0  0  0  0  0  0  0  0  0  0
   -1.5574   -0.7500    0.0000 C   0  0  0  0  0  0  0  0  0  0  0  0
   -0.3846   -1.6852    0.0000 C   0  0  0  0  0  0  0  0  0  0  0  0
    1.0777   -1.3515    0.0000 N   0  0  0  0  0  0  0  0  0  0  0  0
    1.7286    0.0000    0.0000 N   0  0  0  0  0  0  0  0  0  0  0  0
    1.0777    1.3515    0.0000 N   0  0  0  0  0  0  0  0  0  0  0  0
   -0.3846    1.6852    0.0000 N   0  0  0  0  0  0  0  0  0  0  0  0
   -0.7184    3.1476    0.0000 C   0  0  0  0  0  0  0  0  0  0  0  0
   -2.0977    3.7372    0.0000 N   0  0  0  0  0  0  0  0  0  0  0  0
   -1.9633    5.2311    0.0000 N   0  0  0  0  0  0  0  0  0  0  0  0
   -0.5009    5.5649    0.0000 N   0  0  0  0  0  0  0  0  0  0  0  0
    0.2685    4.2772    0.0000 N   0  0  0  0  0  0  0  0  0  0  0  0
    1.7624    4.1428    0.0000 C   0  0  0  0  0  0  0  0  0  0  0  0
    2.3930    2.7817    0.0000 C   0  0  0  0  0  0  0  0  0  0  0  0
    3.8869    2.6473    0.0000 C   0  0  0  0  0  0  0  0  0  0  0  0
    4.7504    3.8739    0.0000 C   0  0  0  0  0  0  0  0  0  0  0  0
    6.2443    3.7394    0.0000 C   0  0  0  0  0  0  0  0  0  0  0  0
    7.2312    4.8690    0.0000 N   0  0  0  0  0  0  0  0  0  0  0  0
    8.6105    4.2795    0.0000 N   0  0  0  0  0  0  0  0  0  0  0  0
    8.4761    2.7855    0.0000 N   0  0  0  0  0  0  0  0  0  0  0  0
    7.0137    2.4517    0.0000 N   0  0  0  0  0  0  0  0  0  0  0  0
    6.4241    1.0724    0.0000 C   0  0  0  0  0  0  0  0  0  0  0  0
    4.9349    0.8933    0.0000 C   0  0  0  0  0  0  0  0  0  0  0  0
    4.3453   -0.4859    0.0000 C   0  0  0  0  0  0  0  0  0  0  0  0
    5.2451   -1.6862    0.0000 C   0  0  0  0  0  0  0  0  0  0  0  0
    6.7343   -1.5071    0.0000 C   0  0  0  0  0  0  0  0  0  0  0  0
    7.3239   -0.1278    0.0000 C   0  0  0  0  0  0  0  0  0  0  0  0
    4.1198    5.2349    0.0000 C   0  0  0  0  0  0  0  0  0  0  0  0
    2.6259    5.3694    0.0000 C   0  0  0  0  0  0  0  0  0  0  0  0
   -3.2445   -1.7140    0.0000 N   0  0  0  0  0  0  0  0  0  0  0  0
   -3.4458   -3.2004    0.0000 C   0  0  0  0  0  0  0  0  0  0  0  0
   -2.2592   -4.1180    0.0000 O   0  0  0  0  0  0  0  0  0  0  0  0
  1  2  1  0
  2  3  1  0
  3  4  2  0
  4  5  1  0
  5  6  2  0
  6  7  1  0
  7  8  2  0
  8  9  1  0
  9 10  2  0
 10 11  1  0
 11 12  1  0
 12 13  2  0
 13 14  1  0
 14 15  2  0
 15 16  1  0
 16 17  2  0
 17 18  1  0
 18 19  1  0
 19 20  2  0
 20 21  1  0
 21 22  2  0
 22 23  1  0
 23 24  1  0
 24 25  2  0
 25 26  1  0
 26 27  2  0
 27 28  1  0
 28 29  2  0
 29 30  1  0
 30 31  2  0
 31 32  1  0
 32 33  1  0
 33 34  2  0
 34 35  1  0
 35 36  2  0
 36 37  1  0
 37 38  2  0
 27 39  1  0
 39 40  2  0
  6 41  1  0
 41 42  1  0
 42 43  2  0
 42  3  1  0
 11  7  1  0
 18 12  1  0
 23 19  1  0
 40 24  1  0
 32 28  1  0
 38 33  1  0
M  END
>  <Title>  (1300) 
idABXZgen8

$$$$

     RDKit          2D

 43 49  0  0  0  0  0  0  0  0999 V2000
    0.8311   10.2038    0.0000 C   0  0  0  0  0  0  0  0  0  0  0  0
   -0.5392    9.5937    0.0000 C   0  0  0  0  0  0  0  0  0  0  0  0
   -1.7527   10.4753    0.0000 C   0  0  0  0  0  0  0  0  0  0  0  0
   -3.1230    9.8652    0.0000 C   0  0  0  0  0  0  0  0  0  0  0  0
   -3.2798    8.3735    0.0000 C   0  0  0  0  0  0  0  0  0  0  0  0
   -4.6502    7.7634    0.0000 C   0  0  0  0  0  0  0  0  0  0  0  0
   -5.9492    8.5134    0.0000 N   0  0  0  0  0  0  0  0  0  0  0  0
   -7.0639    7.5097    0.0000 N   0  0  0  0  0  0  0  0  0  0  0  0
   -6.4538    6.1393    0.0000 N   0  0  0  0  0  0  0  0  0  0  0  0
   -4.9620    6.2961    0.0000 N   0  0  0  0  0  0  0  0  0  0  0  0
   -3.9583    5.1814    0.0000 C   0  0  0  0  0  0  0  0  0  0  0  0
   -2.4911    5.4933    0.0000 N   0  0  0  0  0  0  0  0  0  0  0  0
   -1.4874    4.3786    0.0000 N   0  0  0  0  0  0  0  0  0  0  0  0
   -1.9509    2.9520    0.0000 N   0  0  0  0  0  0  0  0  0  0  0  0
   -3.4182    2.6401    0.0000 N   0  0  0  0  0  0  0  0  0  0  0  0
   -4.4218    3.7548    0.0000 N   0  0  0  0  0  0  0  0  0  0  0  0
   -5.8891    3.4430    0.0000 C   0  0  0  0  0  0  0  0  0  0  0  0
   -6.8928    4.5577    0.0000 C   0  0  0  0  0  0  0  0  0  0  0  0
   -8.3600    4.2458    0.0000 C   0  0  0  0  0  0  0  0  0  0  0  0
   -8.8235    2.8192    0.0000 C   0  0  0  0  0  0  0  0  0  0  0  0
  -10.2907    2.5074    0.0000 C   0  0  0  0  0  0  0  0  0  0  0  0
  -10.9008    1.1370    0.0000 N   0  0  0  0  0  0  0  0  0  0  0  0
  -12.3926    1.2938    0.0000 N   0  0  0  0  0  0  0  0  0  0  0  0
  -12.7045    2.7611    0.0000 N   0  0  0  0  0  0  0  0  0  0  0  0
  -11.4055    3.5111    0.0000 N   0  0  0  0  0  0  0  0  0  0  0  0
  -11.2487    5.0028    0.0000 C   0  0  0  0  0  0  0  0  0  0  0  0
   -9.8783    5.6129    0.0000 C   0  0  0  0  0  0  0  0  0  0  0  0
   -9.7215    7.1047    0.0000 C   0  0  0  0  0  0  0  0  0  0  0  0
  -10.9351    7.9864    0.0000 C   0  0  0  0  0  0  0  0  0  0  0  0
  -12.3054    7.3763    0.0000 C   0  0  0  0  0  0  0  0  0  0  0  0
  -12.4622    5.8845    0.0000 C   0  0  0  0  0  0  0  0  0  0  0  0
   -7.8198    1.7045    0.0000 C   0  0  0  0  0  0  0  0  0  0  0  0
   -6.3526    2.0164    0.0000 C   0  0  0  0  0  0  0  0  0  0  0  0
   -5.3489    0.9017    0.0000 C   0  0  0  0  0  0  0  0  0  0  0  0
   -5.8124   -0.5249    0.0000 C   0  0  0  0  0  0  0  0  0  0  0  0
   -4.8087   -1.6396    0.0000 C   0  0  0  0  0  0  0  0  0  0  0  0
   -3.3415   -1.3278    0.0000 C   0  0  0  0  0  0  0  0  0  0  0  0
   -2.3378   -2.4425    0.0000 C   0  0  0  0  0  0  0  0  0  0  0  0
   -2.8780    0.0988    0.0000 C   0  0  0  0  0  0  0  0  0  0  0  0
   -1.4108    0.4107    0.0000 O   0  0  0  0  0  0  0  0  0  0  0  0
   -3.8817    1.2135    0.0000 N   0  0  0  0  0  0  0  0  0  0  0  0
   -2.0663    7.4918    0.0000 N   0  0  0  0  0  0  0  0  0  0  0  0
   -0.6960    8.1019    0.0000 N   0  0  0  0  0  0  0  0  0  0  0  0
  1  2  1  0
  2  3  2  0
  3  4  1  0
  4  5  2  0
  5  6  1  0
  6  7  2  0
  7  8  1  0
  8  9  2  0
  9 10  1  0
 10 11  1  0
 11 12  1  0
 12 13  1  0
 13 14  1  0
 14 15  2  0
 15 16  1  0
 16 17  1  0
 17 18  2  0
 18 19  1  0
 19 20  2  0
 20 21  1  0
 21 22  2  0
 22 23  1  0
 23 24  2  0
 24 25  1  0
 25 26  1  0
 26 27  2  0
 27 28  1  0
 28 29  2  0
 29 30  1  0
 30 31  2  0
 20 32  1  0
 32 33  2  0
 33 34  1  0
 34 35  2  0
 35 36  1  0
 36 37  2  0
 37 38  1  0
 37 39  1  0
 39 40  2  0
 39 41  1  0
  5 42  1  0
 42 43  2  0
 43  2  1  0
 10  6  1  0
 16 11  1  0
 33 17  1  0
 41 34  1  0
 25 21  1  0
 31 26  1  0
M  END
>  <Title>  (1301) 
idABYAgen8

$$$$

     RDKit          2D

 53 60  0  0  0  0  0  0  0  0999 V2000
    1.8860    2.4698    0.0000 C   0  0  0  0  0  0  0  0  0  0  0  0
    0.4188    2.7817    0.0000 O   0  0  0  0  0  0  0  0  0  0  0  0
   -0.0448    4.2083    0.0000 C   0  0  0  0  0  0  0  0  0  0  0  0
   -1.5401    4.3260    0.0000 C   0  0  0  0  0  0  0  0  0  0  0  0
   -2.2211    2.9895    0.0000 O   0  0  0  0  0  0  0  0  0  0  0  0
   -2.5143    5.4666    0.0000 C   0  0  0  0  0  0  0  0  0  0  0  0
   -2.3966    6.9620    0.0000 C   0  0  0  0  0  0  0  0  0  0  0  0
   -1.2560    7.9361    0.0000 C   0  0  0  0  0  0  0  0  0  0  0  0
    0.2394    7.8184    0.0000 C   0  0  0  0  0  0  0  0  0  0  0  0
    0.9203    9.1549    0.0000 O   0  0  0  0  0  0  0  0  0  0  0  0
    1.2135    6.6778    0.0000 C   0  0  0  0  0  0  0  0  0  0  0  0
    2.6401    7.1414    0.0000 C   0  0  0  0  0  0  0  0  0  0  0  0
    3.1036    8.5679    0.0000 N   0  0  0  0  0  0  0  0  0  0  0  0
    4.6036    8.5679    0.0000 N   0  0  0  0  0  0  0  0  0  0  0  0
    5.0672    7.1414    0.0000 N   0  0  0  0  0  0  0  0  0  0  0  0
    3.8536    6.2597    0.0000 N   0  0  0  0  0  0  0  0  0  0  0  0
    3.8536    4.7597    0.0000 C   0  0  0  0  0  0  0  0  0  0  0  0
    2.6401    3.8780    0.0000 C   0  0  0  0  0  0  0  0  0  0  0  0
    3.1036    2.4514    0.0000 C   0  0  0  0  0  0  0  0  0  0  0  0
    4.6036    2.4514    0.0000 C   0  0  0  0  0  0  0  0  0  0  0  0
    5.4853    1.2379    0.0000 C   0  0  0  0  0  0  0  0  0  0  0  0
    6.9853    1.2379    0.0000 N   0  0  0  0  0  0  0  0  0  0  0  0
    7.4488   -0.1887    0.0000 N   0  0  0  0  0  0  0  0  0  0  0  0
    6.2353   -1.0704    0.0000 N   0  0  0  0  0  0  0  0  0  0  0  0
    5.0218   -0.1887    0.0000 N   0  0  0  0  0  0  0  0  0  0  0  0
    3.5952   -0.6522    0.0000 C   0  0  0  0  0  0  0  0  0  0  0  0
    2.4805    0.3515    0.0000 C   0  0  0  0  0  0  0  0  0  0  0  0
    1.0539   -0.1121    0.0000 C   0  0  0  0  0  0  0  0  0  0  0  0
    0.7420   -1.5793    0.0000 C   0  0  0  0  0  0  0  0  0  0  0  0
    1.8568   -2.5830    0.0000 C   0  0  0  0  0  0  0  0  0  0  0  0
    3.2833   -2.1194    0.0000 C   0  0  0  0  0  0  0  0  0  0  0  0
    4.3981   -3.1231    0.0000 C   0  0  0  0  0  0  0  0  0  0  0  0
    5.8246   -2.6596    0.0000 C   0  0  0  0  0  0  0  0  0  0  0  0
    6.9394   -3.6633    0.0000 C   0  0  0  0  0  0  0  0  0  0  0  0
    6.6275   -5.1305    0.0000 N   0  0  0  0  0  0  0  0  0  0  0  0
    5.2009   -5.5941    0.0000 N   0  0  0  0  0  0  0  0  0  0  0  0
    4.0862   -4.5904    0.0000 C   0  0  0  0  0  0  0  0  0  0  0  0
    2.6596   -5.0539    0.0000 N   0  0  0  0  0  0  0  0  0  0  0  0
    1.5449   -4.0502    0.0000 N   0  0  0  0  0  0  0  0  0  0  0  0
    0.1183   -4.5137    0.0000 N   0  0  0  0  0  0  0  0  0  0  0  0
   -0.1936   -5.9809    0.0000 N   0  0  0  0  0  0  0  0  0  0  0  0
    0.9211   -6.9846    0.0000 N   0  0  0  0  0  0  0  0  0  0  0  0
    2.3477   -6.5211    0.0000 N   0  0  0  0  0  0  0  0  0  0  0  0
    3.4625   -7.5248    0.0000 C   0  0  0  0  0  0  0  0  0  0  0  0
    4.8890   -7.0613    0.0000 C   0  0  0  0  0  0  0  0  0  0  0  0
    6.0038   -8.0650    0.0000 N   0  0  0  0  0  0  0  0  0  0  0  0
    5.6919   -9.5322    0.0000 N   0  0  0  0  0  0  0  0  0  0  0  0
    4.2653   -9.9957    0.0000 N   0  0  0  0  0  0  0  0  0  0  0  0
    3.1506   -8.9920    0.0000 C   0  0  0  0  0  0  0  0  0  0  0  0
    1.7240   -9.4556    0.0000 O   0  0  0  0  0  0  0  0  0  0  0  0
    5.0672    3.8780    0.0000 C   0  0  0  0  0  0  0  0  0  0  0  0
    6.4937    4.3415    0.0000 O   0  0  0  0  0  0  0  0  0  0  0  0
    1.0958    5.1825    0.0000 N   0  0  0  0  0  0  0  0  0  0  0  0
  1  2  1  0
  2  3  1  0
  3  4  2  0
  4  5  1  0
  4  6  1  0
  6  7  2  0
  7  8  1  0
  8  9  2  0
  9 10  1  0
  9 11  1  0
 11 12  1  0
 12 13  2  0
 13 14  1  0
 14 15  2  0
 15 16  1  0
 16 17  1  0
 17 18  2  0
 18 19  1  0
 19 20  2  0
 20 21  1  0
 21 22  2  0
 22 23  1  0
 23 24  2  0
 24 25  1  0
 25 26  1  0
 26 27  2  0
 27 28  1  0
 28 29  2  0
 29 30  1  0
 30 31  2  0
 31 32  1  0
 32 33  2  0
 33 34  1  0
 34 35  2  0
 35 36  1  0
 36 37  2  0
 37 38  1  0
 38 39  1  0
 39 40  2  0
 40 41  1  0
 41 42  2  0
 42 43  1  0
 43 44  1  0
 44 45  2  0
 45 46  1  0
 46 47  2  0
 47 48  1  0
 48 49  2  0
 49 50  1  0
 20 51  1  0
 51 52  2  0
 11 53  1  0
 53  3  1  0
 16 12  1  0
 51 17  1  0
 25 21  1  0
 31 26  1  0
 37 32  1  0
 43 38  1  0
 49 44  1  0
M  END
>  <Title>  (1302) 
idABYBgen8

$$$$

     RDKit          2D

 37 37  0  0  0  0  0  0  0  0999 V2000
   10.6169   -1.2990    0.0000 C   0  0  0  0  0  0  0  0  0  0  0  0
    9.8669    0.0000    0.0000 O   0  0  0  0  0  0  0  0  0  0  0  0
    8.3669    0.0000    0.0000 C   0  0  0  0  0  0  0  0  0  0  0  0
    8.2324    1.4940    0.0000 C   0  0  0  0  0  0  0  0  0  0  0  0
    7.8334    2.9399    0.0000 C   0  0  0  0  0  0  0  0  0  0  0  0
    7.1825    4.2914    0.0000 C   0  0  0  0  0  0  0  0  0  0  0  0
    6.3008    5.5049    0.0000 C   0  0  0  0  0  0  0  0  0  0  0  0
    5.2167    6.5415    0.0000 C   0  0  0  0  0  0  0  0  0  0  0  0
    3.9648    7.3678    0.0000 C   0  0  0  0  0  0  0  0  0  0  0  0
    2.5855    7.9574    0.0000 C   0  0  0  0  0  0  0  0  0  0  0  0
    1.1231    8.2911    0.0000 C   0  0  0  0  0  0  0  0  0  0  0  0
   -0.3754    8.3584    0.0000 C   0  0  0  0  0  0  0  0  0  0  0  0
   -1.8618    8.1571    0.0000 C   0  0  0  0  0  0  0  0  0  0  0  0
   -3.2884    7.6936    0.0000 C   0  0  0  0  0  0  0  0  0  0  0  0
   -4.6093    6.9828    0.0000 C   0  0  0  0  0  0  0  0  0  0  0  0
   -5.7820    6.0475    0.0000 C   0  0  0  0  0  0  0  0  0  0  0  0
   -6.7689    4.9179    0.0000 C   0  0  0  0  0  0  0  0  0  0  0  0
   -7.5383    3.6302    0.0000 C   0  0  0  0  0  0  0  0  0  0  0  0
   -8.0653    2.2259    0.0000 C   0  0  0  0  0  0  0  0  0  0  0  0
   -8.3332    0.7500    0.0000 C   0  0  0  0  0  0  0  0  0  0  0  0
   -8.3332   -0.7500    0.0000 C   0  0  0  0  0  0  0  0  0  0  0  0
   -8.0653   -2.2259    0.0000 C   0  0  0  0  0  0  0  0  0  0  0  0
   -7.5383   -3.6302    0.0000 C   0  0  0  0  0  0  0  0  0  0  0  0
   -6.7689   -4.9179    0.0000 C   0  0  0  0  0  0  0  0  0  0  0  0
   -5.7820   -6.0475    0.0000 C   0  0  0  0  0  0  0  0  0  0  0  0
   -4.6093   -6.9828    0.0000 C   0  0  0  0  0  0  0  0  0  0  0  0
   -3.2884   -7.6936    0.0000 C   0  0  0  0  0  0  0  0  0  0  0  0
   -1.8618   -8.1571    0.0000 C   0  0  0  0  0  0  0  0  0  0  0  0
   -0.3754   -8.3584    0.0000 C   0  0  0  0  0  0  0  0  0  0  0  0
    1.1231   -8.2911    0.0000 C   0  0  0  0  0  0  0  0  0  0  0  0
    2.5855   -7.9574    0.0000 C   0  0  0  0  0  0  0  0  0  0  0  0
    3.9648   -7.3678    0.0000 C   0  0  0  0  0  0  0  0  0  0  0  0
    5.2167   -6.5415    0.0000 C   0  0  0  0  0  0  0  0  0  0  0  0
    6.3008   -5.5049    0.0000 C   0  0  0  0  0  0  0  0  0  0  0  0
    7.1825   -4.2914    0.0000 C   0  0  0  0  0  0  0  0  0  0  0  0
    7.8334   -2.9399    0.0000 C   0  0  0  0  0  0  0  0  0  0  0  0
    8.2324   -1.4940    0.0000 C   0  0  0  0  0  0  0  0  0  0  0  0
  1  2  1  0
  2  3  1  0
  3  4  2  0
  4  5  1  0
  5  6  2  0
  6  7  2  0
  7  8  1  0
  8  9  2  0
  9 10  1  0
 10 11  2  0
 11 12  1  0
 12 13  2  0
 13 14  1  0
 14 15  2  0
 15 16  1  0
 16 17  2  0
 17 18  1  0
 18 19  2  0
 19 20  1  0
 20 21  2  0
 21 22  1  0
 22 23  2  0
 23 24  1  0
 24 25  2  0
 25 26  1  0
 26 27  2  0
 27 28  1  0
 28 29  2  0
 29 30  1  0
 30 31  2  0
 31 32  1  0
 32 33  2  0
 33 34  1  0
 34 35  2  0
 35 36  1  0
 36 37  2  0
 37  3  1  0
M  END
>  <Title>  (1303) 
idABYCgen8

$$$$

     RDKit          2D

 49 55  0  0  0  0  0  0  0  0999 V2000
    0.9879   11.6956    0.0000 C   0  0  0  0  0  0  0  0  0  0  0  0
    0.8311   10.2038    0.0000 O   0  0  0  0  0  0  0  0  0  0  0  0
   -0.5392    9.5937    0.0000 C   0  0  0  0  0  0  0  0  0  0  0  0
   -1.7527   10.4753    0.0000 C   0  0  0  0  0  0  0  0  0  0  0  0
   -3.1230    9.8652    0.0000 C   0  0  0  0  0  0  0  0  0  0  0  0
   -3.2798    8.3735    0.0000 C   0  0  0  0  0  0  0  0  0  0  0  0
   -4.6502    7.7634    0.0000 C   0  0  0  0  0  0  0  0  0  0  0  0
   -5.9492    8.5134    0.0000 N   0  0  0  0  0  0  0  0  0  0  0  0
   -7.0639    7.5097    0.0000 N   0  0  0  0  0  0  0  0  0  0  0  0
   -6.4538    6.1393    0.0000 N   0  0  0  0  0  0  0  0  0  0  0  0
   -4.9620    6.2961    0.0000 N   0  0  0  0  0  0  0  0  0  0  0  0
   -3.9583    5.1814    0.0000 C   0  0  0  0  0  0  0  0  0  0  0  0
   -2.4911    5.4933    0.0000 C   0  0  0  0  0  0  0  0  0  0  0  0
   -1.4874    4.3786    0.0000 C   0  0  0  0  0  0  0  0  0  0  0  0
   -1.9509    2.9520    0.0000 C   0  0  0  0  0  0  0  0  0  0  0  0
   -3.4182    2.6401    0.0000 C   0  0  0  0  0  0  0  0  0  0  0  0
   -4.4218    3.7548    0.0000 C   0  0  0  0  0  0  0  0  0  0  0  0
   -5.8891    3.4430    0.0000 C   0  0  0  0  0  0  0  0  0  0  0  0
   -6.8928    4.5577    0.0000 C   0  0  0  0  0  0  0  0  0  0  0  0
   -8.3600    4.2458    0.0000 C   0  0  0  0  0  0  0  0  0  0  0  0
   -8.8235    2.8192    0.0000 C   0  0  0  0  0  0  0  0  0  0  0  0
  -10.2907    2.5074    0.0000 C   0  0  0  0  0  0  0  0  0  0  0  0
  -10.7543    1.0808    0.0000 O   0  0  0  0  0  0  0  0  0  0  0  0
  -11.2944    3.6221    0.0000 N   0  0  0  0  0  0  0  0  0  0  0  0
  -12.7617    3.3102    0.0000 C   0  0  0  0  0  0  0  0  0  0  0  0
  -13.3718    1.9399    0.0000 N   0  0  0  0  0  0  0  0  0  0  0  0
  -14.8635    2.0967    0.0000 N   0  0  0  0  0  0  0  0  0  0  0  0
  -15.1754    3.5639    0.0000 N   0  0  0  0  0  0  0  0  0  0  0  0
  -13.8764    4.3139    0.0000 N   0  0  0  0  0  0  0  0  0  0  0  0
  -13.7196    5.8057    0.0000 C   0  0  0  0  0  0  0  0  0  0  0  0
  -12.3493    6.4158    0.0000 C   0  0  0  0  0  0  0  0  0  0  0  0
  -12.1925    7.9076    0.0000 C   0  0  0  0  0  0  0  0  0  0  0  0
  -13.4060    8.7893    0.0000 C   0  0  0  0  0  0  0  0  0  0  0  0
  -14.7763    8.1791    0.0000 N   0  0  0  0  0  0  0  0  0  0  0  0
  -14.9331    6.6874    0.0000 C   0  0  0  0  0  0  0  0  0  0  0  0
   -7.8198    1.7045    0.0000 C   0  0  0  0  0  0  0  0  0  0  0  0
   -6.3526    2.0164    0.0000 C   0  0  0  0  0  0  0  0  0  0  0  0
   -5.3489    0.9017    0.0000 C   0  0  0  0  0  0  0  0  0  0  0  0
   -5.8124   -0.5249    0.0000 C   0  0  0  0  0  0  0  0  0  0  0  0
   -4.8087   -1.6396    0.0000 C   0  0  0  0  0  0  0  0  0  0  0  0
   -3.3415   -1.3278    0.0000 C   0  0  0  0  0  0  0  0  0  0  0  0
   -2.3378   -2.4425    0.0000 C   0  0  0  0  0  0  0  0  0  0  0  0
   -0.8706   -2.1306    0.0000 O   0  0  0  0  0  0  0  0  0  0  0  0
   -2.8013   -3.8691    0.0000 N   0  0  0  0  0  0  0  0  0  0  0  0
   -1.7976   -4.9838    0.0000 O   0  0  0  0  0  0  0  0  0  0  0  0
   -2.8780    0.0988    0.0000 C   0  0  0  0  0  0  0  0  0  0  0  0
   -3.8817    1.2135    0.0000 C   0  0  0  0  0  0  0  0  0  0  0  0
   -2.0663    7.4918    0.0000 C   0  0  0  0  0  0  0  0  0  0  0  0
   -0.6960    8.1019    0.0000 C   0  0  0  0  0  0  0  0  0  0  0  0
  1  2  1  0
  2  3  1  0
  3  4  2  0
  4  5  1  0
  5  6  2  0
  6  7  1  0
  7  8  2  0
  8  9  1  0
  9 10  2  0
 10 11  1  0
 11 12  1  0
 12 13  1  0
 13 14  1  0
 14 15  1  0
 15 16  1  0
 16 17  1  0
 17 18  1  0
 18 19  2  0
 19 20  1  0
 20 21  2  0
 21 22  1  0
 22 23  2  0
 22 24  1  0
 24 25  1  0
 25 26  2  0
 26 27  1  0
 27 28  2  0
 28 29  1  0
 29 30  1  0
 30 31  2  0
 31 32  1  0
 32 33  2  0
 33 34  1  0
 34 35  2  0
 21 36  1  0
 36 37  2  0
 37 38  1  0
 38 39  2  0
 39 40  1  0
 40 41  2  0
 41 42  1  0
 42 43  2  0
 42 44  1  0
 44 45  1  0
 41 46  1  0
 46 47  1  0
  6 48  1  0
 48 49  2  0
 49  3  1  0
 11  7  1  0
 17 12  1  0
 37 18  1  0
 47 38  1  0
 29 25  1  0
 35 30  1  0
M  END
>  <Title>  (1304) 
idABYDgen8

$$$$

     RDKit          2D

 31 35  0  0  0  0  0  0  0  0999 V2000
    3.9786   -1.2990    0.0000 C   0  0  0  0  0  0  0  0  0  0  0  0
    3.2286   -0.0000    0.0000 O   0  0  0  0  0  0  0  0  0  0  0  0
    1.7286    0.0000    0.0000 C   0  0  0  0  0  0  0  0  0  0  0  0
    1.0777    1.3515    0.0000 C   0  0  0  0  0  0  0  0  0  0  0  0
   -0.3846    1.6852    0.0000 C   0  0  0  0  0  0  0  0  0  0  0  0
   -1.5574    0.7500    0.0000 C   0  0  0  0  0  0  0  0  0  0  0  0
   -2.9088    1.4008    0.0000 N   0  0  0  0  0  0  0  0  0  0  0  0
   -4.2297    0.6900    0.0000 N   0  0  0  0  0  0  0  0  0  0  0  0
   -5.3139    1.7266    0.0000 N   0  0  0  0  0  0  0  0  0  0  0  0
   -4.6631    3.0781    0.0000 N   0  0  0  0  0  0  0  0  0  0  0  0
   -3.1767    2.8767    0.0000 C   0  0  0  0  0  0  0  0  0  0  0  0
   -2.1401    3.9609    0.0000 C   0  0  0  0  0  0  0  0  0  0  0  0
   -0.6405    3.9946    0.0000 C   0  0  0  0  0  0  0  0  0  0  0  0
   -0.6741    5.4942    0.0000 C   0  0  0  0  0  0  0  0  0  0  0  0
   -2.1737    5.4605    0.0000 C   0  0  0  0  0  0  0  0  0  0  0  0
   -3.2579    6.4971    0.0000 C   0  0  0  0  0  0  0  0  0  0  0  0
   -4.7338    6.2293    0.0000 N   0  0  0  0  0  0  0  0  0  0  0  0
   -5.4446    7.5502    0.0000 N   0  0  0  0  0  0  0  0  0  0  0  0
   -4.4080    8.6344    0.0000 N   0  0  0  0  0  0  0  0  0  0  0  0
   -3.0566    7.9836    0.0000 N   0  0  0  0  0  0  0  0  0  0  0  0
   -1.7357    8.6944    0.0000 C   0  0  0  0  0  0  0  0  0  0  0  0
   -1.5343   10.1808    0.0000 C   0  0  0  0  0  0  0  0  0  0  0  0
   -0.0584   10.4486    0.0000 C   0  0  0  0  0  0  0  0  0  0  0  0
    0.6524    9.1277    0.0000 C   0  0  0  0  0  0  0  0  0  0  0  0
    2.1388    8.9264    0.0000 C   0  0  0  0  0  0  0  0  0  0  0  0
   -0.3842    8.0435    0.0000 C   0  0  0  0  0  0  0  0  0  0  0  0
   -0.1164    6.5676    0.0000 O   0  0  0  0  0  0  0  0  0  0  0  0
   -1.5574   -0.7500    0.0000 N   0  0  0  0  0  0  0  0  0  0  0  0
   -0.3846   -1.6852    0.0000 C   0  0  0  0  0  0  0  0  0  0  0  0
   -0.7184   -3.1476    0.0000 O   0  0  0  0  0  0  0  0  0  0  0  0
    1.0777   -1.3515    0.0000 C   0  0  0  0  0  0  0  0  0  0  0  0
  1  2  1  0
  2  3  1  0
  3  4  2  0
  4  5  1  0
  5  6  2  0
  6  7  1  0
  7  8  1  0
  8  9  2  0
  9 10  1  0
 10 11  2  0
 11 12  1  0
 12 13  1  0
 13 14  1  0
 14 15  1  0
 15 16  1  0
 16 17  2  0
 17 18  1  0
 18 19  2  0
 19 20  1  0
 20 21  1  0
 21 22  2  0
 22 23  1  0
 23 24  2  0
 24 25  1  0
 24 26  1  0
 26 27  2  0
  6 28  1  0
 28 29  1  0
 29 30  2  0
 29 31  1  0
 31  3  1  0
 11  7  1  0
 15 12  1  0
 20 16  1  0
 26 21  1  0
M  END
>  <Title>  (1305) 
idABYEgen8

$$$$

     RDKit          2D

 39 44  0  0  0  0  0  0  0  0999 V2000
    3.2286   -0.0000    0.0000 C   0  0  0  0  0  0  0  0  0  0  0  0
    1.7286    0.0000    0.0000 C   0  0  0  0  0  0  0  0  0  0  0  0
    1.0777    1.3515    0.0000 C   0  0  0  0  0  0  0  0  0  0  0  0
   -0.3846    1.6852    0.0000 C   0  0  0  0  0  0  0  0  0  0  0  0
   -1.5574    0.7500    0.0000 C   0  0  0  0  0  0  0  0  0  0  0  0
   -2.9088    1.4008    0.0000 C   0  0  0  0  0  0  0  0  0  0  0  0
   -4.2297    0.6900    0.0000 N   0  0  0  0  0  0  0  0  0  0  0  0
   -5.3139    1.7266    0.0000 N   0  0  0  0  0  0  0  0  0  0  0  0
   -4.6631    3.0781    0.0000 N   0  0  0  0  0  0  0  0  0  0  0  0
   -3.1767    2.8767    0.0000 N   0  0  0  0  0  0  0  0  0  0  0  0
   -2.1401    3.9609    0.0000 C   0  0  0  0  0  0  0  0  0  0  0  0
   -0.6829    3.6053    0.0000 C   0  0  0  0  0  0  0  0  0  0  0  0
    0.3537    4.6895    0.0000 C   0  0  0  0  0  0  0  0  0  0  0  0
   -0.0669    6.1293    0.0000 C   0  0  0  0  0  0  0  0  0  0  0  0
   -1.5241    6.4849    0.0000 C   0  0  0  0  0  0  0  0  0  0  0  0
   -2.5607    5.4007    0.0000 C   0  0  0  0  0  0  0  0  0  0  0  0
   -4.0180    5.7563    0.0000 C   0  0  0  0  0  0  0  0  0  0  0  0
   -5.0546    4.6722    0.0000 C   0  0  0  0  0  0  0  0  0  0  0  0
   -6.5118    5.0278    0.0000 C   0  0  0  0  0  0  0  0  0  0  0  0
   -6.9324    6.4676    0.0000 C   0  0  0  0  0  0  0  0  0  0  0  0
   -8.3897    6.8232    0.0000 C   0  0  0  0  0  0  0  0  0  0  0  0
   -5.8958    7.5518    0.0000 C   0  0  0  0  0  0  0  0  0  0  0  0
   -4.4386    7.1962    0.0000 C   0  0  0  0  0  0  0  0  0  0  0  0
   -3.4020    8.2804    0.0000 C   0  0  0  0  0  0  0  0  0  0  0  0
   -1.9156    8.0790    0.0000 C   0  0  0  0  0  0  0  0  0  0  0  0
   -1.2648    9.4305    0.0000 C   0  0  0  0  0  0  0  0  0  0  0  0
   -2.3490   10.4670    0.0000 C   0  0  0  0  0  0  0  0  0  0  0  0
   -2.1476   11.9535    0.0000 C   0  0  0  0  0  0  0  0  0  0  0  0
   -3.3342   12.8711    0.0000 C   0  0  0  0  0  0  0  0  0  0  0  0
   -3.1329   14.3575    0.0000 C   0  0  0  0  0  0  0  0  0  0  0  0
   -1.7449   14.9263    0.0000 C   0  0  0  0  0  0  0  0  0  0  0  0
   -0.5583   14.0087    0.0000 C   0  0  0  0  0  0  0  0  0  0  0  0
   -0.7596   12.5223    0.0000 C   0  0  0  0  0  0  0  0  0  0  0  0
   -3.6698    9.7562    0.0000 C   0  0  0  0  0  0  0  0  0  0  0  0
   -5.0213   10.4071    0.0000 O   0  0  0  0  0  0  0  0  0  0  0  0
   -1.5574   -0.7500    0.0000 N   0  0  0  0  0  0  0  0  0  0  0  0
   -0.3846   -1.6852    0.0000 C   0  0  0  0  0  0  0  0  0  0  0  0
   -0.7184   -3.1476    0.0000 O   0  0  0  0  0  0  0  0  0  0  0  0
    1.0777   -1.3515    0.0000 N   0  0  0  0  0  0  0  0  0  0  0  0
  1  2  1  0
  2  3  2  0
  3  4  1  0
  4  5  2  0
  5  6  1  0
  6  7  2  0
  7  8  1  0
  8  9  2  0
  9 10  1  0
 10 11  1  0
 11 12  2  0
 12 13  1  0
 13 14  2  0
 14 15  1  0
 15 16  2  0
 16 17  1  0
 17 18  2  0
 18 19  1  0
 19 20  2  0
 20 21  1  0
 20 22  1  0
 22 23  2  0
 23 24  1  0
 24 25  2  0
 25 26  1  0
 26 27  2  0
 27 28  1  0
 28 29  2  0
 29 30  1  0
 30 31  2  0
 31 32  1  0
 32 33  2  0
 27 34  1  0
 34 35  2  0
  5 36  1  0
 36 37  1  0
 37 38  2  0
 37 39  1  0
 39  2  1  0
 10  6  1  0
 16 11  1  0
 23 17  1  0
 34 24  1  0
 33 28  1  0
M  END
>  <Title>  (1306) 
idABYFgen8

$$$$

     RDKit          2D

 37 41  0  0  0  0  0  0  0  0999 V2000
    3.0000    0.0000    0.0000 C   0  0  0  0  0  0  0  0  0  0  0  0
    1.5000    0.0000    0.0000 C   0  0  0  0  0  0  0  0  0  0  0  0
    0.7500   -1.2990    0.0000 C   0  0  0  0  0  0  0  0  0  0  0  0
   -0.7500   -1.2990    0.0000 C   0  0  0  0  0  0  0  0  0  0  0  0
   -1.5000    0.0000    0.0000 C   0  0  0  0  0  0  0  0  0  0  0  0
   -3.0000    0.0000    0.0000 C   0  0  0  0  0  0  0  0  0  0  0  0
   -3.7500   -1.2990    0.0000 O   0  0  0  0  0  0  0  0  0  0  0  0
   -3.7500    1.2990    0.0000 N   0  0  0  0  0  0  0  0  0  0  0  0
   -5.2500    1.2990    0.0000 C   0  0  0  0  0  0  0  0  0  0  0  0
   -6.1317    0.0855    0.0000 N   0  0  0  0  0  0  0  0  0  0  0  0
   -7.5583    0.5490    0.0000 N   0  0  0  0  0  0  0  0  0  0  0  0
   -7.5583    2.0490    0.0000 N   0  0  0  0  0  0  0  0  0  0  0  0
   -6.1317    2.5126    0.0000 N   0  0  0  0  0  0  0  0  0  0  0  0
   -5.6682    3.9391    0.0000 C   0  0  0  0  0  0  0  0  0  0  0  0
   -6.5498    5.1527    0.0000 C   0  0  0  0  0  0  0  0  0  0  0  0
   -5.6682    6.3662    0.0000 C   0  0  0  0  0  0  0  0  0  0  0  0
   -4.2416    5.9027    0.0000 C   0  0  0  0  0  0  0  0  0  0  0  0
   -3.0280    6.7844    0.0000 C   0  0  0  0  0  0  0  0  0  0  0  0
   -2.2430    6.6460    0.0000 O   0  0  0  0  0  0  0  0  0  0  0  0
   -3.1848    8.2761    0.0000 N   0  0  0  0  0  0  0  0  0  0  0  0
   -1.9713    9.1578    0.0000 O   0  0  0  0  0  0  0  0  0  0  0  0
   -4.2416    4.4027    0.0000 C   0  0  0  0  0  0  0  0  0  0  0  0
   -3.0280    3.5210    0.0000 C   0  0  0  0  0  0  0  0  0  0  0  0
   -3.0280    2.0210    0.0000 N   0  0  0  0  0  0  0  0  0  0  0  0
   -1.6015    1.5575    0.0000 N   0  0  0  0  0  0  0  0  0  0  0  0
   -0.7198    2.7710    0.0000 N   0  0  0  0  0  0  0  0  0  0  0  0
   -1.6015    3.9845    0.0000 N   0  0  0  0  0  0  0  0  0  0  0  0
   -1.1379    5.4111    0.0000 C   0  0  0  0  0  0  0  0  0  0  0  0
   -2.1416    6.5258    0.0000 C   0  0  0  0  0  0  0  0  0  0  0  0
   -1.6781    7.9524    0.0000 C   0  0  0  0  0  0  0  0  0  0  0  0
   -0.2109    8.2643    0.0000 C   0  0  0  0  0  0  0  0  0  0  0  0
    0.2526    9.6909    0.0000 C   0  0  0  0  0  0  0  0  0  0  0  0
    0.7928    7.1496    0.0000 C   0  0  0  0  0  0  0  0  0  0  0  0
    2.2600    7.4614    0.0000 O   0  0  0  0  0  0  0  0  0  0  0  0
    0.3293    5.7230    0.0000 N   0  0  0  0  0  0  0  0  0  0  0  0
   -0.7500    1.2990    0.0000 N   0  0  0  0  0  0  0  0  0  0  0  0
    0.7500    1.2990    0.0000 C   0  0  0  0  0  0  0  0  0  0  0  0
  1  2  1  0
  2  3  2  0
  3  4  1  0
  4  5  2  0
  5  6  1  0
  6  7  2  0
  6  8  1  0
  8  9  1  0
  9 10  2  0
 10 11  1  0
 11 12  2  0
 12 13  1  0
 13 14  1  0
 14 15  2  0
 15 16  1  0
 16 17  2  0
 17 18  1  0
 18 19  2  0
 18 20  1  0
 20 21  1  0
 17 22  1  0
 22 23  1  0
 23 24  2  0
 24 25  1  0
 25 26  2  0
 26 27  1  0
 27 28  1  0
 28 29  2  0
 29 30  1  0
 30 31  2  0
 31 32  1  0
 31 33  1  0
 33 34  2  0
 33 35  1  0
  5 36  1  0
 36 37  1  0
 37  2  1  0
 13  9  1  0
 22 14  1  0
 27 23  1  0
 35 28  1  0
M  END
>  <Title>  (1307) 
idABYGgen8

$$$$

     RDKit          2D

 17 17  0  0  0  0  0  0  0  0999 V2000
    4.8705    0.0000    0.0000 C   0  0  0  0  0  0  0  0  0  0  0  0
    3.3705    0.0000    0.0000 C   0  0  0  0  0  0  0  0  0  0  0  0
    3.0367   -1.4624    0.0000 C   0  0  0  0  0  0  0  0  0  0  0  0
    2.1015   -2.6351    0.0000 C   0  0  0  0  0  0  0  0  0  0  0  0
    0.7500   -3.2860    0.0000 C   0  0  0  0  0  0  0  0  0  0  0  0
   -0.7500   -3.2860    0.0000 C   0  0  0  0  0  0  0  0  0  0  0  0
   -2.1015   -2.6351    0.0000 C   0  0  0  0  0  0  0  0  0  0  0  0
   -3.0367   -1.4624    0.0000 C   0  0  0  0  0  0  0  0  0  0  0  0
   -3.3705    0.0000    0.0000 C   0  0  0  0  0  0  0  0  0  0  0  0
   -3.0367    1.4624    0.0000 C   0  0  0  0  0  0  0  0  0  0  0  0
   -4.3881    2.1132    0.0000 F   0  0  0  0  0  0  0  0  0  0  0  0
   -2.1015    2.6351    0.0000 C   0  0  0  0  0  0  0  0  0  0  0  0
   -0.7500    3.2860    0.0000 C   0  0  0  0  0  0  0  0  0  0  0  0
    0.7500    3.2860    0.0000 C   0  0  0  0  0  0  0  0  0  0  0  0
    2.1015    2.6351    0.0000 C   0  0  0  0  0  0  0  0  0  0  0  0
    3.0367    1.4624    0.0000 C   0  0  0  0  0  0  0  0  0  0  0  0
    4.3881    2.1132    0.0000 C   0  0  0  0  0  0  0  0  0  0  0  0
  1  2  1  0
  2  3  2  0
  3  4  1  0
  4  5  2  0
  5  6  1  0
  6  7  2  0
  7  8  1  0
  8  9  2  0
  9 10  1  0
 10 11  1  0
 10 12  2  0
 12 13  1  0
 13 14  2  0
 14 15  1  0
 15 16  2  0
 16 17  1  0
 16  2  1  0
M  END
>  <Title>  (1308) 
idABYHgen8

$$$$

     RDKit          2D

 13 13  0  0  0  0  0  0  0  0999 V2000
    4.3978    0.0000    0.0000 O   0  0  0  0  0  0  0  0  0  0  0  0
    2.8978    0.0000    0.0000 C   0  0  0  0  0  0  0  0  0  0  0  0
    2.5095   -1.4489    0.0000 C   0  0  0  0  0  0  0  0  0  0  0  0
    1.4489   -2.5095    0.0000 C   0  0  0  0  0  0  0  0  0  0  0  0
   -0.0000   -2.8978    0.0000 C   0  0  0  0  0  0  0  0  0  0  0  0
   -1.4489   -2.5095    0.0000 C   0  0  0  0  0  0  0  0  0  0  0  0
   -2.5095   -1.4489    0.0000 C   0  0  0  0  0  0  0  0  0  0  0  0
   -2.8978    0.0000    0.0000 C   0  0  0  0  0  0  0  0  0  0  0  0
   -2.5095    1.4489    0.0000 C   0  0  0  0  0  0  0  0  0  0  0  0
   -1.4489    2.5095    0.0000 C   0  0  0  0  0  0  0  0  0  0  0  0
    0.0000    2.8978    0.0000 C   0  0  0  0  0  0  0  0  0  0  0  0
    1.4489    2.5095    0.0000 C   0  0  0  0  0  0  0  0  0  0  0  0
    2.5095    1.4489    0.0000 C   0  0  0  0  0  0  0  0  0  0  0  0
  1  2  1  0
  2  3  2  0
  3  4  1  0
  4  5  2  0
  5  6  1  0
  6  7  2  0
  7  8  1  0
  8  9  2  0
  9 10  2  0
 10 11  2  0
 11 12  1  0
 12 13  2  0
 13  2  1  0
M  END
>  <Title>  (1309) 
idABYIgen8

$$$$

     RDKit          2D

 35 39  0  0  0  0  0  0  0  0999 V2000
    3.0000    0.0000    0.0000 C   0  0  0  0  0  0  0  0  0  0  0  0
    1.5000    0.0000    0.0000 C   0  0  0  0  0  0  0  0  0  0  0  0
    0.7500    1.2990    0.0000 C   0  0  0  0  0  0  0  0  0  0  0  0
   -0.7500    1.2990    0.0000 C   0  0  0  0  0  0  0  0  0  0  0  0
   -1.5000    0.0000    0.0000 C   0  0  0  0  0  0  0  0  0  0  0  0
   -3.0000    0.0000    0.0000 C   0  0  0  0  0  0  0  0  0  0  0  0
   -3.8817   -1.2135    0.0000 N   0  0  0  0  0  0  0  0  0  0  0  0
   -5.3083   -0.7500    0.0000 N   0  0  0  0  0  0  0  0  0  0  0  0
   -5.3083    0.7500    0.0000 N   0  0  0  0  0  0  0  0  0  0  0  0
   -3.8817    1.2135    0.0000 N   0  0  0  0  0  0  0  0  0  0  0  0
   -3.4182    2.6401    0.0000 C   0  0  0  0  0  0  0  0  0  0  0  0
   -1.9509    2.9520    0.0000 C   0  0  0  0  0  0  0  0  0  0  0  0
   -1.4874    4.3786    0.0000 C   0  0  0  0  0  0  0  0  0  0  0  0
   -2.4911    5.4933    0.0000 C   0  0  0  0  0  0  0  0  0  0  0  0
   -2.0276    6.9199    0.0000 C   0  0  0  0  0  0  0  0  0  0  0  0
   -3.0313    8.0346    0.0000 O   0  0  0  0  0  0  0  0  0  0  0  0
   -0.5604    7.2317    0.0000 N   0  0  0  0  0  0  0  0  0  0  0  0
   -0.0968    8.6583    0.0000 C   0  0  0  0  0  0  0  0  0  0  0  0
   -1.1005    9.7730    0.0000 O   0  0  0  0  0  0  0  0  0  0  0  0
    1.3704    8.9702    0.0000 C   0  0  0  0  0  0  0  0  0  0  0  0
    1.9805   10.3405    0.0000 N   0  0  0  0  0  0  0  0  0  0  0  0
    3.4723   10.1837    0.0000 N   0  0  0  0  0  0  0  0  0  0  0  0
    3.7841    8.7165    0.0000 N   0  0  0  0  0  0  0  0  0  0  0  0
    2.4851    7.9665    0.0000 N   0  0  0  0  0  0  0  0  0  0  0  0
    2.3283    6.4747    0.0000 C   0  0  0  0  0  0  0  0  0  0  0  0
    0.9580    5.8646    0.0000 C   0  0  0  0  0  0  0  0  0  0  0  0
    0.8012    4.3728    0.0000 C   0  0  0  0  0  0  0  0  0  0  0  0
    2.0147    3.4911    0.0000 C   0  0  0  0  0  0  0  0  0  0  0  0
    3.3850    4.1012    0.0000 C   0  0  0  0  0  0  0  0  0  0  0  0
    3.5418    5.5930    0.0000 C   0  0  0  0  0  0  0  0  0  0  0  0
   -3.9583    5.1814    0.0000 C   0  0  0  0  0  0  0  0  0  0  0  0
   -4.4218    3.7548    0.0000 C   0  0  0  0  0  0  0  0  0  0  0  0
   -0.7500   -1.2990    0.0000 C   0  0  0  0  0  0  0  0  0  0  0  0
   -1.5000   -2.5981    0.0000 O   0  0  0  0  0  0  0  0  0  0  0  0
    0.7500   -1.2990    0.0000 N   0  0  0  0  0  0  0  0  0  0  0  0
  1  2  1  0
  2  3  2  0
  3  4  1  0
  4  5  2  0
  5  6  1  0
  6  7  2  0
  7  8  1  0
  8  9  2  0
  9 10  1  0
 10 11  1  0
 11 12  2  0
 12 13  1  0
 13 14  2  0
 14 15  1  0
 15 16  2  0
 15 17  1  0
 17 18  1  0
 18 19  2  0
 18 20  1  0
 20 21  2  0
 21 22  1  0
 22 23  2  0
 23 24  1  0
 24 25  1  0
 25 26  2  0
 26 27  1  0
 27 28  2  0
 28 29  1  0
 29 30  2  0
 14 31  1  0
 31 32  2  0
  5 33  1  0
 33 34  2  0
 33 35  1  0
 35  2  1  0
 10  6  1  0
 32 11  1  0
 24 20  1  0
 30 25  1  0
M  END
>  <Title>  (1310) 
idABYJgen8

$$$$

     RDKit          2D

 36 36  0  0  0  0  0  0  0  0999 V2000
    9.6285    0.0000    0.0000 C   0  0  0  0  0  0  0  0  0  0  0  0
    8.1285    0.0000    0.0000 C   0  0  0  0  0  0  0  0  0  0  0  0
    7.9901   -1.4936    0.0000 C   0  0  0  0  0  0  0  0  0  0  0  0
    7.5796   -2.9363    0.0000 C   0  0  0  0  0  0  0  0  0  0  0  0
    6.9110   -4.2791    0.0000 C   0  0  0  0  0  0  0  0  0  0  0  0
    6.0070   -5.4761    0.0000 C   0  0  0  0  0  0  0  0  0  0  0  0
    4.8985   -6.4867    0.0000 C   0  0  0  0  0  0  0  0  0  0  0  0
    3.6232   -7.2763    0.0000 C   0  0  0  0  0  0  0  0  0  0  0  0
    2.2245   -7.8182    0.0000 C   0  0  0  0  0  0  0  0  0  0  0  0
    0.7500   -8.0938    0.0000 C   0  0  0  0  0  0  0  0  0  0  0  0
   -0.7500   -8.0938    0.0000 C   0  0  0  0  0  0  0  0  0  0  0  0
   -2.2245   -7.8182    0.0000 C   0  0  0  0  0  0  0  0  0  0  0  0
   -3.6232   -7.2763    0.0000 C   0  0  0  0  0  0  0  0  0  0  0  0
   -4.8985   -6.4867    0.0000 C   0  0  0  0  0  0  0  0  0  0  0  0
   -6.0070   -5.4761    0.0000 C   0  0  0  0  0  0  0  0  0  0  0  0
   -6.9110   -4.2791    0.0000 C   0  0  0  0  0  0  0  0  0  0  0  0
   -7.5796   -2.9363    0.0000 C   0  0  0  0  0  0  0  0  0  0  0  0
   -7.9901   -1.4936    0.0000 C   0  0  0  0  0  0  0  0  0  0  0  0
   -8.1285    0.0000    0.0000 C   0  0  0  0  0  0  0  0  0  0  0  0
   -7.9901    1.4936    0.0000 C   0  0  0  0  0  0  0  0  0  0  0  0
   -7.5796    2.9363    0.0000 C   0  0  0  0  0  0  0  0  0  0  0  0
   -6.9110    4.2791    0.0000 C   0  0  0  0  0  0  0  0  0  0  0  0
   -6.0070    5.4761    0.0000 C   0  0  0  0  0  0  0  0  0  0  0  0
   -4.8985    6.4867    0.0000 C   0  0  0  0  0  0  0  0  0  0  0  0
   -3.6232    7.2763    0.0000 C   0  0  0  0  0  0  0  0  0  0  0  0
   -2.2245    7.8182    0.0000 C   0  0  0  0  0  0  0  0  0  0  0  0
   -0.7500    8.0938    0.0000 C   0  0  0  0  0  0  0  0  0  0  0  0
    0.7500    8.0938    0.0000 C   0  0  0  0  0  0  0  0  0  0  0  0
    2.2245    7.8182    0.0000 C   0  0  0  0  0  0  0  0  0  0  0  0
    3.6232    7.2763    0.0000 C   0  0  0  0  0  0  0  0  0  0  0  0
    4.8985    6.4867    0.0000 C   0  0  0  0  0  0  0  0  0  0  0  0
    6.0070    5.4761    0.0000 C   0  0  0  0  0  0  0  0  0  0  0  0
    6.9110    4.2791    0.0000 C   0  0  0  0  0  0  0  0  0  0  0  0
    7.5796    2.9363    0.0000 C   0  0  0  0  0  0  0  0  0  0  0  0
    7.9901    1.4936    0.0000 C   0  0  0  0  0  0  0  0  0  0  0  0
    9.4645    1.7692    0.0000 O   0  0  0  0  0  0  0  0  0  0  0  0
  1  2  1  0
  2  3  2  0
  3  4  1  0
  4  5  2  0
  5  6  1  0
  6  7  2  0
  7  8  1  0
  8  9  2  0
  9 10  1  0
 10 11  2  0
 11 12  1  0
 12 13  2  0
 13 14  1  0
 14 15  2  0
 15 16  1  0
 16 17  2  0
 17 18  1  0
 18 19  2  0
 19 20  1  0
 20 21  2  0
 21 22  1  0
 22 23  2  0
 23 24  1  0
 24 25  2  0
 25 26  1  0
 26 27  2  0
 27 28  1  0
 28 29  2  0
 29 30  1  0
 30 31  2  0
 31 32  1  0
 32 33  2  0
 33 34  1  0
 34 35  2  0
 35 36  1  0
 35  2  1  0
M  END
>  <Title>  (1311) 
idABYKgen8

$$$$

     RDKit          2D

 63 73  0  0  0  0  0  0  0  0999 V2000
   -2.0180   11.4711    0.0000 C   0  0  0  0  0  0  0  0  0  0  0  0
   -0.8045   10.5894    0.0000 C   0  0  0  0  0  0  0  0  0  0  0  0
   -1.0723    9.1135    0.0000 C   0  0  0  0  0  0  0  0  0  0  0  0
   -0.0854    7.9839    0.0000 C   0  0  0  0  0  0  0  0  0  0  0  0
    1.4131    8.0512    0.0000 C   0  0  0  0  0  0  0  0  0  0  0  0
    2.1239    6.7303    0.0000 C   0  0  0  0  0  0  0  0  0  0  0  0
    3.6103    6.5290    0.0000 N   0  0  0  0  0  0  0  0  0  0  0  0
    3.8781    5.0531    0.0000 N   0  0  0  0  0  0  0  0  0  0  0  0
    2.5573    4.3423    0.0000 N   0  0  0  0  0  0  0  0  0  0  0  0
    1.4731    5.3789    0.0000 N   0  0  0  0  0  0  0  0  0  0  0  0
   -0.0028    5.1110    0.0000 C   0  0  0  0  0  0  0  0  0  0  0  0
   -1.0870    6.1476    0.0000 C   0  0  0  0  0  0  0  0  0  0  0  0
   -2.4079    5.4368    0.0000 C   0  0  0  0  0  0  0  0  0  0  0  0
   -2.1401    3.9609    0.0000 N   0  0  0  0  0  0  0  0  0  0  0  0
   -0.6537    3.7596    0.0000 N   0  0  0  0  0  0  0  0  0  0  0  0
    0.0571    2.4387    0.0000 C   0  0  0  0  0  0  0  0  0  0  0  0
    1.5436    2.2373    0.0000 C   0  0  0  0  0  0  0  0  0  0  0  0
    1.8114    0.7614    0.0000 C   0  0  0  0  0  0  0  0  0  0  0  0
    0.4905    0.0506    0.0000 C   0  0  0  0  0  0  0  0  0  0  0  0
   -0.5937    1.0872    0.0000 N   0  0  0  0  0  0  0  0  0  0  0  0
   -2.0696    0.8194    0.0000 C   0  0  0  0  0  0  0  0  0  0  0  0
   -3.0395    1.9636    0.0000 C   0  0  0  0  0  0  0  0  0  0  0  0
   -4.5154    1.6958    0.0000 C   0  0  0  0  0  0  0  0  0  0  0  0
   -5.0214    0.2837    0.0000 C   0  0  0  0  0  0  0  0  0  0  0  0
   -6.4973    0.0159    0.0000 C   0  0  0  0  0  0  0  0  0  0  0  0
   -7.1481   -1.3356    0.0000 N   0  0  0  0  0  0  0  0  0  0  0  0
   -8.6345   -1.1342    0.0000 N   0  0  0  0  0  0  0  0  0  0  0  0
   -8.9023    0.3417    0.0000 N   0  0  0  0  0  0  0  0  0  0  0  0
   -7.5815    1.0525    0.0000 N   0  0  0  0  0  0  0  0  0  0  0  0
   -7.3801    2.5389    0.0000 C   0  0  0  0  0  0  0  0  0  0  0  0
   -5.9921    3.1077    0.0000 C   0  0  0  0  0  0  0  0  0  0  0  0
   -5.7908    4.5942    0.0000 C   0  0  0  0  0  0  0  0  0  0  0  0
   -6.9774    5.5117    0.0000 C   0  0  0  0  0  0  0  0  0  0  0  0
   -8.3654    4.9429    0.0000 C   0  0  0  0  0  0  0  0  0  0  0  0
   -8.5667    3.4565    0.0000 C   0  0  0  0  0  0  0  0  0  0  0  0
   -4.0515   -0.8605    0.0000 C   0  0  0  0  0  0  0  0  0  0  0  0
   -2.5756   -0.5927    0.0000 C   0  0  0  0  0  0  0  0  0  0  0  0
   -1.6057   -1.7369    0.0000 C   0  0  0  0  0  0  0  0  0  0  0  0
   -0.1099   -1.6248    0.0000 C   0  0  0  0  0  0  0  0  0  0  0  0
    0.4590   -3.0128    0.0000 N   0  0  0  0  0  0  0  0  0  0  0  0
   -0.6853   -3.9827    0.0000 N   0  0  0  0  0  0  0  0  0  0  0  0
   -1.9613   -3.1942    0.0000 N   0  0  0  0  0  0  0  0  0  0  0  0
   -3.3493   -3.7630    0.0000 C   0  0  0  0  0  0  0  0  0  0  0  0
   -3.7049   -5.2203    0.0000 C   0  0  0  0  0  0  0  0  0  0  0  0
   -5.2007   -5.3323    0.0000 C   0  0  0  0  0  0  0  0  0  0  0  0
   -5.7695   -3.9444    0.0000 C   0  0  0  0  0  0  0  0  0  0  0  0
   -7.2268   -3.5888    0.0000 C   0  0  0  0  0  0  0  0  0  0  0  0
   -7.7956   -2.2008    0.0000 N   0  0  0  0  0  0  0  0  0  0  0  0
   -9.2914   -2.3129    0.0000 N   0  0  0  0  0  0  0  0  0  0  0  0
   -9.6470   -3.7701    0.0000 N   0  0  0  0  0  0  0  0  0  0  0  0
   -8.3710   -4.5587    0.0000 N   0  0  0  0  0  0  0  0  0  0  0  0
   -8.2589   -6.0545    0.0000 C   0  0  0  0  0  0  0  0  0  0  0  0
   -6.9074   -6.7053    0.0000 C   0  0  0  0  0  0  0  0  0  0  0  0
   -6.7954   -8.2011    0.0000 C   0  0  0  0  0  0  0  0  0  0  0  0
   -8.0347   -9.0461    0.0000 C   0  0  0  0  0  0  0  0  0  0  0  0
   -9.3862   -8.3953    0.0000 C   0  0  0  0  0  0  0  0  0  0  0  0
   -9.4983   -6.8995    0.0000 C   0  0  0  0  0  0  0  0  0  0  0  0
   -4.6253   -2.9745    0.0000 C   0  0  0  0  0  0  0  0  0  0  0  0
   -4.7374   -1.4787    0.0000 O   0  0  0  0  0  0  0  0  0  0  0  0
    2.2948    9.2647    0.0000 N   0  0  0  0  0  0  0  0  0  0  0  0
    1.8957   10.7107    0.0000 C   0  0  0  0  0  0  0  0  0  0  0  0
    3.0253   11.6976    0.0000 O   0  0  0  0  0  0  0  0  0  0  0  0
    0.5164   11.3002    0.0000 N   0  0  0  0  0  0  0  0  0  0  0  0
  1  2  1  0
  2  3  2  0
  3  4  1  0
  4  5  2  0
  5  6  1  0
  6  7  2  0
  7  8  1  0
  8  9  2  0
  9 10  1  0
 10 11  1  0
 11 12  2  0
 12 13  1  0
 13 14  2  0
 14 15  1  0
 15 16  1  0
 16 17  2  0
 17 18  1  0
 18 19  2  0
 19 20  1  0
 20 21  1  0
 21 22  2  0
 22 23  1  0
 23 24  2  0
 24 25  1  0
 25 26  2  0
 26 27  1  0
 27 28  2  0
 28 29  1  0
 29 30  1  0
 30 31  2  0
 31 32  1  0
 32 33  2  0
 33 34  1  0
 34 35  2  0
 24 36  1  0
 36 37  2  0
 37 38  1  0
 38 39  2  0
 39 40  1  0
 40 41  2  0
 41 42  1  0
 42 43  1  0
 43 44  2  0
 44 45  1  0
 45 46  2  0
 46 47  1  0
 47 48  2  0
 48 49  1  0
 49 50  2  0
 50 51  1  0
 51 52  1  0
 52 53  2  0
 53 54  1  0
 54 55  2  0
 55 56  1  0
 56 57  2  0
 46 58  1  0
 58 59  2  0
  5 60  1  0
 60 61  1  0
 61 62  2  0
 61 63  1  0
 63  2  1  0
 10  6  1  0
 15 11  1  0
 20 16  1  0
 37 21  1  0
 42 38  1  0
 58 43  1  0
 29 25  1  0
 35 30  1  0
 51 47  1  0
 57 52  1  0
M  END
>  <Title>  (1312) 
idABYLgen8

$$$$

     RDKit          2D

 31 35  0  0  0  0  0  0  0  0999 V2000
    3.0000    0.0000    0.0000 O   0  0  0  0  0  0  0  0  0  0  0  0
    1.5000    0.0000    0.0000 C   0  0  0  0  0  0  0  0  0  0  0  0
    0.7500   -1.2990    0.0000 C   0  0  0  0  0  0  0  0  0  0  0  0
   -0.7500   -1.2990    0.0000 C   0  0  0  0  0  0  0  0  0  0  0  0
   -1.5000    0.0000    0.0000 C   0  0  0  0  0  0  0  0  0  0  0  0
   -3.0000    0.0000    0.0000 O   0  0  0  0  0  0  0  0  0  0  0  0
   -3.7500    1.2990    0.0000 C   0  0  0  0  0  0  0  0  0  0  0  0
   -5.2500    1.2990    0.0000 C   0  0  0  0  0  0  0  0  0  0  0  0
   -6.1317    0.0855    0.0000 N   0  0  0  0  0  0  0  0  0  0  0  0
   -7.5583    0.5490    0.0000 N   0  0  0  0  0  0  0  0  0  0  0  0
   -7.5583    2.0490    0.0000 N   0  0  0  0  0  0  0  0  0  0  0  0
   -6.1317    2.5126    0.0000 N   0  0  0  0  0  0  0  0  0  0  0  0
   -5.6682    3.9391    0.0000 C   0  0  0  0  0  0  0  0  0  0  0  0
   -4.2009    4.2510    0.0000 C   0  0  0  0  0  0  0  0  0  0  0  0
   -3.7374    5.6776    0.0000 C   0  0  0  0  0  0  0  0  0  0  0  0
   -4.7411    6.7923    0.0000 C   0  0  0  0  0  0  0  0  0  0  0  0
   -4.2776    8.2189    0.0000 C   0  0  0  0  0  0  0  0  0  0  0  0
   -5.1593    9.4324    0.0000 N   0  0  0  0  0  0  0  0  0  0  0  0
   -4.2776   10.6460    0.0000 N   0  0  0  0  0  0  0  0  0  0  0  0
   -2.8510   10.1824    0.0000 N   0  0  0  0  0  0  0  0  0  0  0  0
   -2.8510    8.6824    0.0000 N   0  0  0  0  0  0  0  0  0  0  0  0
   -1.6375    7.8008    0.0000 C   0  0  0  0  0  0  0  0  0  0  0  0
   -1.7943    6.3090    0.0000 C   0  0  0  0  0  0  0  0  0  0  0  0
   -0.5807    5.4273    0.0000 C   0  0  0  0  0  0  0  0  0  0  0  0
    0.7896    6.0374    0.0000 C   0  0  0  0  0  0  0  0  0  0  0  0
    0.9464    7.5292    0.0000 C   0  0  0  0  0  0  0  0  0  0  0  0
   -0.2671    8.4109    0.0000 C   0  0  0  0  0  0  0  0  0  0  0  0
   -6.2083    6.4805    0.0000 C   0  0  0  0  0  0  0  0  0  0  0  0
   -6.6718    5.0539    0.0000 C   0  0  0  0  0  0  0  0  0  0  0  0
   -0.7500    1.2990    0.0000 C   0  0  0  0  0  0  0  0  0  0  0  0
    0.7500    1.2990    0.0000 N   0  0  0  0  0  0  0  0  0  0  0  0
  1  2  1  0
  2  3  2  0
  3  4  1  0
  4  5  2  0
  5  6  1  0
  6  7  1  0
  7  8  1  0
  8  9  2  0
  9 10  1  0
 10 11  2  0
 11 12  1  0
 12 13  1  0
 13 14  2  0
 14 15  1  0
 15 16  2  0
 16 17  1  0
 17 18  2  0
 18 19  1  0
 19 20  2  0
 20 21  1  0
 21 22  1  0
 22 23  2  0
 23 24  1  0
 24 25  2  0
 25 26  1  0
 26 27  2  0
 16 28  1  0
 28 29  2  0
  5 30  1  0
 30 31  1  0
 31  2  1  0
 12  8  1  0
 29 13  1  0
 21 17  1  0
 27 22  1  0
M  END
>  <Title>  (1313) 
idABYMgen8

$$$$

     RDKit          2D

 23 23  0  0  0  0  0  0  0  0999 V2000
    7.0443   -1.2990    0.0000 C   0  0  0  0  0  0  0  0  0  0  0  0
    6.2943    0.0000    0.0000 O   0  0  0  0  0  0  0  0  0  0  0  0
    4.7943    0.0000    0.0000 C   0  0  0  0  0  0  0  0  0  0  0  0
    4.5597   -1.4815    0.0000 C   0  0  0  0  0  0  0  0  0  0  0  0
    3.8787   -2.8180    0.0000 C   0  0  0  0  0  0  0  0  0  0  0  0
    2.8180   -3.8787    0.0000 C   0  0  0  0  0  0  0  0  0  0  0  0
    3.6997   -5.0922    0.0000 F   0  0  0  0  0  0  0  0  0  0  0  0
    1.4815   -4.5597    0.0000 C   0  0  0  0  0  0  0  0  0  0  0  0
   -0.0000   -4.7943    0.0000 C   0  0  0  0  0  0  0  0  0  0  0  0
   -1.4815   -4.5597    0.0000 C   0  0  0  0  0  0  0  0  0  0  0  0
   -2.8180   -3.8787    0.0000 C   0  0  0  0  0  0  0  0  0  0  0  0
   -3.8787   -2.8180    0.0000 C   0  0  0  0  0  0  0  0  0  0  0  0
   -4.5597   -1.4815    0.0000 C   0  0  0  0  0  0  0  0  0  0  0  0
   -4.7943    0.0000    0.0000 C   0  0  0  0  0  0  0  0  0  0  0  0
   -4.5597    1.4815    0.0000 C   0  0  0  0  0  0  0  0  0  0  0  0
   -3.8787    2.8180    0.0000 C   0  0  0  0  0  0  0  0  0  0  0  0
   -2.8180    3.8787    0.0000 C   0  0  0  0  0  0  0  0  0  0  0  0
   -1.4815    4.5597    0.0000 C   0  0  0  0  0  0  0  0  0  0  0  0
    0.0000    4.7943    0.0000 C   0  0  0  0  0  0  0  0  0  0  0  0
    1.4815    4.5597    0.0000 C   0  0  0  0  0  0  0  0  0  0  0  0
    2.8180    3.8787    0.0000 C   0  0  0  0  0  0  0  0  0  0  0  0
    3.8787    2.8180    0.0000 C   0  0  0  0  0  0  0  0  0  0  0  0
    4.5597    1.4815    0.0000 C   0  0  0  0  0  0  0  0  0  0  0  0
  1  2  1  0
  2  3  1  0
  3  4  2  0
  4  5  1  0
  5  6  2  0
  6  7  1  0
  6  8  1  0
  8  9  2  0
  9 10  1  0
 10 11  2  0
 11 12  1  0
 12 13  2  0
 13 14  1  0
 14 15  2  0
 15 16  1  0
 16 17  2  0
 17 18  1  0
 18 19  2  0
 19 20  1  0
 20 21  2  0
 21 22  1  0
 22 23  2  0
 23  3  1  0
M  END
>  <Title>  (1314) 
idABYNgen8

$$$$

     RDKit          2D

 28 30  0  0  0  0  0  0  0  0999 V2000
    7.5910   -5.7526    0.0000 C   0  0  0  0  0  0  0  0  0  0  0  0
    6.3517   -4.9076    0.0000 O   0  0  0  0  0  0  0  0  0  0  0  0
    5.0002   -5.5584    0.0000 C   0  0  0  0  0  0  0  0  0  0  0  0
    5.3340   -7.0208    0.0000 C   0  0  0  0  0  0  0  0  0  0  0  0
    5.0002   -8.4832    0.0000 C   0  0  0  0  0  0  0  0  0  0  0  0
    4.0650   -9.6560    0.0000 C   0  0  0  0  0  0  0  0  0  0  0  0
    2.7135  -10.3068    0.0000 C   0  0  0  0  0  0  0  0  0  0  0  0
    1.2135  -10.3068    0.0000 N   0  0  0  0  0  0  0  0  0  0  0  0
   -0.1379   -9.6560    0.0000 N   0  0  0  0  0  0  0  0  0  0  0  0
   -1.0732   -8.4832    0.0000 N   0  0  0  0  0  0  0  0  0  0  0  0
   -1.4069   -7.0208    0.0000 N   0  0  0  0  0  0  0  0  0  0  0  0
   -1.0732   -5.5584    0.0000 N   0  0  0  0  0  0  0  0  0  0  0  0
   -0.1379   -4.3857    0.0000 N   0  0  0  0  0  0  0  0  0  0  0  0
    1.2135   -3.7348    0.0000 C   0  0  0  0  0  0  0  0  0  0  0  0
    2.7135   -3.7348    0.0000 C   0  0  0  0  0  0  0  0  0  0  0  0
    3.1771   -2.3083    0.0000 N   0  0  0  0  0  0  0  0  0  0  0  0
    1.9635   -1.4266    0.0000 C   0  0  0  0  0  0  0  0  0  0  0  0
    2.4271    0.0000    0.0000 C   0  0  0  0  0  0  0  0  0  0  0  0
    1.9635    1.4266    0.0000 C   0  0  0  0  0  0  0  0  0  0  0  0
    0.7500    2.3083    0.0000 C   0  0  0  0  0  0  0  0  0  0  0  0
   -0.7500    2.3083    0.0000 C   0  0  0  0  0  0  0  0  0  0  0  0
   -1.9635    1.4266    0.0000 C   0  0  0  0  0  0  0  0  0  0  0  0
   -2.4271    0.0000    0.0000 C   0  0  0  0  0  0  0  0  0  0  0  0
   -1.9635   -1.4266    0.0000 C   0  0  0  0  0  0  0  0  0  0  0  0
   -0.7500   -2.3083    0.0000 C   0  0  0  0  0  0  0  0  0  0  0  0
    0.7500   -2.3083    0.0000 C   0  0  0  0  0  0  0  0  0  0  0  0
    4.0650   -4.3857    0.0000 C   0  0  0  0  0  0  0  0  0  0  0  0
    5.0002   -3.2129    0.0000 O   0  0  0  0  0  0  0  0  0  0  0  0
  1  2  1  0
  2  3  1  0
  3  4  2  0
  4  5  1  0
  5  6  2  0
  6  7  2  0
  7  8  2  0
  8  9  1  0
  9 10  2  0
 10 11  1  0
 11 12  2  0
 12 13  1  0
 13 14  2  0
 14 15  1  0
 15 16  1  0
 16 17  1  0
 17 18  2  0
 18 19  1  0
 19 20  2  0
 20 21  1  0
 21 22  2  0
 22 23  1  0
 23 24  2  0
 24 25  1  0
 25 26  2  0
 15 27  2  0
 27 28  1  0
 27  3  1  0
 26 14  1  0
 26 17  1  0
M  END
>  <Title>  (1315) 
idABYOgen8

$$$$

     RDKit          2D

 35 39  0  0  0  0  0  0  0  0999 V2000
  -11.7708    6.7422    0.0000 C   0  0  0  0  0  0  0  0  0  0  0  0
  -11.9275    5.2504    0.0000 O   0  0  0  0  0  0  0  0  0  0  0  0
  -10.7140    4.3687    0.0000 C   0  0  0  0  0  0  0  0  0  0  0  0
  -10.9819    2.8928    0.0000 C   0  0  0  0  0  0  0  0  0  0  0  0
   -9.9949    1.7632    0.0000 C   0  0  0  0  0  0  0  0  0  0  0  0
   -8.4965    1.8305    0.0000 C   0  0  0  0  0  0  0  0  0  0  0  0
   -7.6148    3.0440    0.0000 C   0  0  0  0  0  0  0  0  0  0  0  0
   -6.1389    2.7762    0.0000 C   0  0  0  0  0  0  0  0  0  0  0  0
   -5.6329    1.3641    0.0000 C   0  0  0  0  0  0  0  0  0  0  0  0
   -6.4779    0.1248    0.0000 N   0  0  0  0  0  0  0  0  0  0  0  0
   -5.5603   -1.0618    0.0000 N   0  0  0  0  0  0  0  0  0  0  0  0
   -4.1482   -0.5558    0.0000 N   0  0  0  0  0  0  0  0  0  0  0  0
   -4.1931    0.9435    0.0000 N   0  0  0  0  0  0  0  0  0  0  0  0
   -3.0065    1.8611    0.0000 C   0  0  0  0  0  0  0  0  0  0  0  0
   -3.0513    3.3604    0.0000 C   0  0  0  0  0  0  0  0  0  0  0  0
   -1.6393    3.8664    0.0000 C   0  0  0  0  0  0  0  0  0  0  0  0
   -0.7217    2.6798    0.0000 C   0  0  0  0  0  0  0  0  0  0  0  0
    0.7777    2.7247    0.0000 C   0  0  0  0  0  0  0  0  0  0  0  0
    1.4686    1.3933    0.0000 N   0  0  0  0  0  0  0  0  0  0  0  0
    2.9403    1.1034    0.0000 N   0  0  0  0  0  0  0  0  0  0  0  0
    4.0846    2.0733    0.0000 N   0  0  0  0  0  0  0  0  0  0  0  0
    4.0397    3.5726    0.0000 N   0  0  0  0  0  0  0  0  0  0  0  0
    2.8395    4.4724    0.0000 N   0  0  0  0  0  0  0  0  0  0  0  0
    1.3878    4.0950    0.0000 N   0  0  0  0  0  0  0  0  0  0  0  0
    0.4179    5.2392    0.0000 C   0  0  0  0  0  0  0  0  0  0  0  0
   -1.0580    4.9714    0.0000 C   0  0  0  0  0  0  0  0  0  0  0  0
   -2.0279    6.1156    0.0000 C   0  0  0  0  0  0  0  0  0  0  0  0
   -1.5219    7.5277    0.0000 C   0  0  0  0  0  0  0  0  0  0  0  0
   -0.0460    7.7955    0.0000 C   0  0  0  0  0  0  0  0  0  0  0  0
    0.9239    6.6513    0.0000 C   0  0  0  0  0  0  0  0  0  0  0  0
   -1.5667    1.4404    0.0000 C   0  0  0  0  0  0  0  0  0  0  0  0
   -1.0607    0.0283    0.0000 O   0  0  0  0  0  0  0  0  0  0  0  0
   -8.0138    4.4900    0.0000 N   0  0  0  0  0  0  0  0  0  0  0  0
   -9.3931    5.0795    0.0000 C   0  0  0  0  0  0  0  0  0  0  0  0
   -9.4604    6.5780    0.0000 O   0  0  0  0  0  0  0  0  0  0  0  0
  1  2  1  0
  2  3  1  0
  3  4  2  0
  4  5  1  0
  5  6  2  0
  6  7  2  0
  7  8  1  0
  8  9  1  0
  9 10  2  0
 10 11  1  0
 11 12  2  0
 12 13  1  0
 13 14  1  0
 14 15  2  0
 15 16  1  0
 16 17  2  0
 17 18  1  0
 18 19  2  0
 19 20  1  0
 20 21  2  0
 21 22  1  0
 22 23  2  0
 23 24  1  0
 24 25  1  0
 25 26  2  0
 26 27  1  0
 27 28  2  0
 28 29  1  0
 29 30  2  0
 17 31  1  0
 31 32  2  0
  7 33  1  0
 33 34  1  0
 34 35  2  0
 34  3  1  0
 13  9  1  0
 31 14  1  0
 24 18  1  0
 30 25  1  0
M  END
>  <Title>  (1316) 
idABYPgen8

$$$$

     RDKit          2D

 21 21  0  0  0  0  0  0  0  0999 V2000
    6.5691   -1.2990    0.0000 C   0  0  0  0  0  0  0  0  0  0  0  0
    5.8191    0.0000    0.0000 O   0  0  0  0  0  0  0  0  0  0  0  0
    4.3191    0.0000    0.0000 C   0  0  0  0  0  0  0  0  0  0  0  0
    4.0586   -1.4772    0.0000 C   0  0  0  0  0  0  0  0  0  0  0  0
    3.3086   -2.7762    0.0000 C   0  0  0  0  0  0  0  0  0  0  0  0
    2.1595   -3.7404    0.0000 C   0  0  0  0  0  0  0  0  0  0  0  0
    0.7500   -4.2535    0.0000 C   0  0  0  0  0  0  0  0  0  0  0  0
   -0.7500   -4.2535    0.0000 C   0  0  0  0  0  0  0  0  0  0  0  0
   -2.1595   -3.7404    0.0000 C   0  0  0  0  0  0  0  0  0  0  0  0
   -3.3086   -2.7762    0.0000 C   0  0  0  0  0  0  0  0  0  0  0  0
   -4.0586   -1.4772    0.0000 C   0  0  0  0  0  0  0  0  0  0  0  0
   -4.3191    0.0000    0.0000 C   0  0  0  0  0  0  0  0  0  0  0  0
   -4.0586    1.4772    0.0000 C   0  0  0  0  0  0  0  0  0  0  0  0
   -3.3086    2.7762    0.0000 C   0  0  0  0  0  0  0  0  0  0  0  0
   -2.1595    3.7404    0.0000 C   0  0  0  0  0  0  0  0  0  0  0  0
   -0.7500    4.2535    0.0000 C   0  0  0  0  0  0  0  0  0  0  0  0
    0.7500    4.2535    0.0000 C   0  0  0  0  0  0  0  0  0  0  0  0
    2.1595    3.7404    0.0000 C   0  0  0  0  0  0  0  0  0  0  0  0
    3.3086    2.7762    0.0000 C   0  0  0  0  0  0  0  0  0  0  0  0
    4.0586    1.4772    0.0000 C   0  0  0  0  0  0  0  0  0  0  0  0
    5.4681    1.9902    0.0000 O   0  0  0  0  0  0  0  0  0  0  0  0
  1  2  1  0
  2  3  1  0
  3  4  2  0
  4  5  1  0
  5  6  2  0
  6  7  1  0
  7  8  2  0
  8  9  1  0
  9 10  2  0
 10 11  1  0
 11 12  2  0
 12 13  1  0
 13 14  2  0
 14 15  1  0
 15 16  2  0
 16 17  1  0
 17 18  2  0
 18 19  1  0
 19 20  2  0
 20 21  1  0
 20  3  1  0
M  END
>  <Title>  (1317) 
idABYQgen8

$$$$

     RDKit          2D

 33 37  0  0  0  0  0  0  0  0999 V2000
    3.0000    0.0000    0.0000 C   0  0  0  0  0  0  0  0  0  0  0  0
    1.5000    0.0000    0.0000 C   0  0  0  0  0  0  0  0  0  0  0  0
    0.7500    1.2990    0.0000 C   0  0  0  0  0  0  0  0  0  0  0  0
   -0.7500    1.2990    0.0000 C   0  0  0  0  0  0  0  0  0  0  0  0
   -1.5000    0.0000    0.0000 C   0  0  0  0  0  0  0  0  0  0  0  0
   -3.0000    0.0000    0.0000 C   0  0  0  0  0  0  0  0  0  0  0  0
   -3.8817   -1.2135    0.0000 N   0  0  0  0  0  0  0  0  0  0  0  0
   -5.3083   -0.7500    0.0000 N   0  0  0  0  0  0  0  0  0  0  0  0
   -5.3083    0.7500    0.0000 N   0  0  0  0  0  0  0  0  0  0  0  0
   -3.8817    1.2135    0.0000 N   0  0  0  0  0  0  0  0  0  0  0  0
   -3.4182    2.6401    0.0000 C   0  0  0  0  0  0  0  0  0  0  0  0
   -1.9509    2.9520    0.0000 C   0  0  0  0  0  0  0  0  0  0  0  0
   -1.4874    4.3786    0.0000 C   0  0  0  0  0  0  0  0  0  0  0  0
   -2.4911    5.4933    0.0000 C   0  0  0  0  0  0  0  0  0  0  0  0
   -2.0276    6.9199    0.0000 C   0  0  0  0  0  0  0  0  0  0  0  0
   -3.0313    8.0346    0.0000 O   0  0  0  0  0  0  0  0  0  0  0  0
   -0.5604    7.2317    0.0000 N   0  0  0  0  0  0  0  0  0  0  0  0
   -0.0968    8.6583    0.0000 C   0  0  0  0  0  0  0  0  0  0  0  0
   -0.9785    9.8718    0.0000 N   0  0  0  0  0  0  0  0  0  0  0  0
   -0.0968   11.0854    0.0000 N   0  0  0  0  0  0  0  0  0  0  0  0
    1.3298   10.6218    0.0000 N   0  0  0  0  0  0  0  0  0  0  0  0
    1.3298    9.1218    0.0000 N   0  0  0  0  0  0  0  0  0  0  0  0
    2.5433    8.2402    0.0000 C   0  0  0  0  0  0  0  0  0  0  0  0
    2.3865    6.7484    0.0000 C   0  0  0  0  0  0  0  0  0  0  0  0
    3.6000    5.8667    0.0000 C   0  0  0  0  0  0  0  0  0  0  0  0
    4.9703    6.4768    0.0000 C   0  0  0  0  0  0  0  0  0  0  0  0
    5.1271    7.9686    0.0000 C   0  0  0  0  0  0  0  0  0  0  0  0
    3.9136    8.8503    0.0000 C   0  0  0  0  0  0  0  0  0  0  0  0
   -3.9583    5.1814    0.0000 C   0  0  0  0  0  0  0  0  0  0  0  0
   -4.4218    3.7548    0.0000 C   0  0  0  0  0  0  0  0  0  0  0  0
   -0.7500   -1.2990    0.0000 C   0  0  0  0  0  0  0  0  0  0  0  0
   -1.5000   -2.5981    0.0000 O   0  0  0  0  0  0  0  0  0  0  0  0
    0.7500   -1.2990    0.0000 N   0  0  0  0  0  0  0  0  0  0  0  0
  1  2  1  0
  2  3  2  0
  3  4  1  0
  4  5  2  0
  5  6  1  0
  6  7  2  0
  7  8  1  0
  8  9  2  0
  9 10  1  0
 10 11  1  0
 11 12  2  0
 12 13  1  0
 13 14  2  0
 14 15  1  0
 15 16  2  0
 15 17  1  0
 17 18  1  0
 18 19  2  0
 19 20  1  0
 20 21  2  0
 21 22  1  0
 22 23  1  0
 23 24  2  0
 24 25  1  0
 25 26  2  0
 26 27  1  0
 27 28  2  0
 14 29  1  0
 29 30  2  0
  5 31  1  0
 31 32  2  0
 31 33  1  0
 33  2  1  0
 10  6  1  0
 30 11  1  0
 22 18  1  0
 28 23  1  0
M  END
>  <Title>  (1318) 
idABYRgen8

$$$$

     RDKit          2D

 40 46  0  0  0  0  0  0  0  0999 V2000
    3.7500   -1.2990    0.0000 C   0  0  0  0  0  0  0  0  0  0  0  0
    3.0000    0.0000    0.0000 O   0  0  0  0  0  0  0  0  0  0  0  0
    1.5000    0.0000    0.0000 C   0  0  0  0  0  0  0  0  0  0  0  0
    0.7500   -1.2990    0.0000 C   0  0  0  0  0  0  0  0  0  0  0  0
   -0.7500   -1.2990    0.0000 C   0  0  0  0  0  0  0  0  0  0  0  0
   -1.5000    0.0000    0.0000 C   0  0  0  0  0  0  0  0  0  0  0  0
   -3.0000    0.0000    0.0000 C   0  0  0  0  0  0  0  0  0  0  0  0
   -3.8817   -1.2135    0.0000 N   0  0  0  0  0  0  0  0  0  0  0  0
   -5.3083   -0.7500    0.0000 N   0  0  0  0  0  0  0  0  0  0  0  0
   -5.3083    0.7500    0.0000 N   0  0  0  0  0  0  0  0  0  0  0  0
   -3.8817    1.2135    0.0000 N   0  0  0  0  0  0  0  0  0  0  0  0
   -3.4182    2.6401    0.0000 C   0  0  0  0  0  0  0  0  0  0  0  0
   -1.9509    2.9520    0.0000 C   0  0  0  0  0  0  0  0  0  0  0  0
   -1.4874    4.3786    0.0000 C   0  0  0  0  0  0  0  0  0  0  0  0
   -2.4911    5.4933    0.0000 C   0  0  0  0  0  0  0  0  0  0  0  0
   -2.0276    6.9199    0.0000 C   0  0  0  0  0  0  0  0  0  0  0  0
   -2.9093    8.1334    0.0000 C   0  0  0  0  0  0  0  0  0  0  0  0
   -2.0276    9.3469    0.0000 N   0  0  0  0  0  0  0  0  0  0  0  0
   -0.6010    8.8834    0.0000 N   0  0  0  0  0  0  0  0  0  0  0  0
   -0.6010    7.3834    0.0000 N   0  0  0  0  0  0  0  0  0  0  0  0
    0.6125    6.5017    0.0000 C   0  0  0  0  0  0  0  0  0  0  0  0
    0.4557    5.0099    0.0000 C   0  0  0  0  0  0  0  0  0  0  0  0
    1.6693    4.1283    0.0000 C   0  0  0  0  0  0  0  0  0  0  0  0
    3.0396    4.7384    0.0000 C   0  0  0  0  0  0  0  0  0  0  0  0
    3.1964    6.2301    0.0000 C   0  0  0  0  0  0  0  0  0  0  0  0
    1.9829    7.1118    0.0000 C   0  0  0  0  0  0  0  0  0  0  0  0
    2.1396    8.6036    0.0000 C   0  0  0  0  0  0  0  0  0  0  0  0
    1.0249    9.6073    0.0000 C   0  0  0  0  0  0  0  0  0  0  0  0
    1.6350   10.9776    0.0000 C   0  0  0  0  0  0  0  0  0  0  0  0
    3.1268   10.8208    0.0000 C   0  0  0  0  0  0  0  0  0  0  0  0
    3.4387    9.3536    0.0000 C   0  0  0  0  0  0  0  0  0  0  0  0
   -3.9583    5.1814    0.0000 C   0  0  0  0  0  0  0  0  0  0  0  0
   -4.4218    3.7548    0.0000 C   0  0  0  0  0  0  0  0  0  0  0  0
   -5.8891    3.4430    0.0000 N   0  0  0  0  0  0  0  0  0  0  0  0
   -6.4992    2.0726    0.0000 N   0  0  0  0  0  0  0  0  0  0  0  0
   -7.9910    2.2294    0.0000 N   0  0  0  0  0  0  0  0  0  0  0  0
   -8.3028    3.6967    0.0000 N   0  0  0  0  0  0  0  0  0  0  0  0
   -7.0038    4.4467    0.0000 N   0  0  0  0  0  0  0  0  0  0  0  0
   -0.7500    1.2990    0.0000 C   0  0  0  0  0  0  0  0  0  0  0  0
    0.7500    1.2990    0.0000 C   0  0  0  0  0  0  0  0  0  0  0  0
  1  2  1  0
  2  3  1  0
  3  4  2  0
  4  5  1  0
  5  6  2  0
  6  7  1  0
  7  8  2  0
  8  9  1  0
  9 10  2  0
 10 11  1  0
 11 12  1  0
 12 13  2  0
 13 14  1  0
 14 15  2  0
 15 16  1  0
 16 17  2  0
 17 18  1  0
 18 19  2  0
 19 20  1  0
 20 21  1  0
 21 22  2  0
 22 23  1  0
 23 24  2  0
 24 25  1  0
 25 26  2  0
 26 27  1  0
 27 28  2  0
 28 29  1  0
 29 30  2  0
 30 31  1  0
 15 32  1  0
 32 33  2  0
 33 34  1  0
 34 35  1  0
 35 36  2  0
 36 37  1  0
 37 38  2  0
  6 39  1  0
 39 40  2  0
 40  3  1  0
 11  7  1  0
 33 12  1  0
 38 34  1  0
 20 16  1  0
 26 21  1  0
 31 27  1  0
M  END
>  <Title>  (1319) 
idABYSgen8

$$$$

     RDKit          2D

 29 32  0  0  0  0  0  0  0  0999 V2000
    3.2286   -0.0000    0.0000 C   0  0  0  0  0  0  0  0  0  0  0  0
    1.7286    0.0000    0.0000 C   0  0  0  0  0  0  0  0  0  0  0  0
    1.0777    1.3515    0.0000 C   0  0  0  0  0  0  0  0  0  0  0  0
   -0.3846    1.6852    0.0000 C   0  0  0  0  0  0  0  0  0  0  0  0
   -1.5574    0.7500    0.0000 C   0  0  0  0  0  0  0  0  0  0  0  0
   -2.9088    1.4008    0.0000 C   0  0  0  0  0  0  0  0  0  0  0  0
   -3.0209    2.8966    0.0000 C   0  0  0  0  0  0  0  0  0  0  0  0
   -4.3724    3.5475    0.0000 C   0  0  0  0  0  0  0  0  0  0  0  0
   -5.6118    2.7025    0.0000 C   0  0  0  0  0  0  0  0  0  0  0  0
   -6.9632    3.3533    0.0000 C   0  0  0  0  0  0  0  0  0  0  0  0
   -5.4997    1.2067    0.0000 C   0  0  0  0  0  0  0  0  0  0  0  0
   -6.7390    0.3617    0.0000 O   0  0  0  0  0  0  0  0  0  0  0  0
   -4.1482    0.5558    0.0000 N   0  0  0  0  0  0  0  0  0  0  0  0
   -1.5574   -0.7500    0.0000 C   0  0  0  0  0  0  0  0  0  0  0  0
   -2.9088   -1.4008    0.0000 N   0  0  0  0  0  0  0  0  0  0  0  0
   -4.2297   -0.6900    0.0000 N   0  0  0  0  0  0  0  0  0  0  0  0
   -5.3139   -1.7266    0.0000 N   0  0  0  0  0  0  0  0  0  0  0  0
   -4.6631   -3.0781    0.0000 N   0  0  0  0  0  0  0  0  0  0  0  0
   -3.1767   -2.8767    0.0000 C   0  0  0  0  0  0  0  0  0  0  0  0
   -2.1401   -3.9609    0.0000 C   0  0  0  0  0  0  0  0  0  0  0  0
   -0.6829   -3.6053    0.0000 C   0  0  0  0  0  0  0  0  0  0  0  0
    0.3537   -4.6895    0.0000 C   0  0  0  0  0  0  0  0  0  0  0  0
   -0.0669   -6.1293    0.0000 C   0  0  0  0  0  0  0  0  0  0  0  0
    0.9697   -7.2135    0.0000 C   0  0  0  0  0  0  0  0  0  0  0  0
   -1.5241   -6.4849    0.0000 C   0  0  0  0  0  0  0  0  0  0  0  0
   -2.5607   -5.4007    0.0000 N   0  0  0  0  0  0  0  0  0  0  0  0
   -0.3846   -1.6852    0.0000 N   0  0  0  0  0  0  0  0  0  0  0  0
    1.0777   -1.3515    0.0000 C   0  0  0  0  0  0  0  0  0  0  0  0
    2.0130   -2.5242    0.0000 C   0  0  0  0  0  0  0  0  0  0  0  0
  1  2  1  0
  2  3  2  0
  3  4  1  0
  4  5  2  0
  5  6  1  0
  6  7  2  0
  7  8  1  0
  8  9  2  0
  9 10  1  0
  9 11  1  0
 11 12  2  0
 11 13  1  0
  5 14  1  0
 14 15  1  0
 15 16  1  0
 16 17  2  0
 17 18  1  0
 18 19  2  0
 19 20  1  0
 20 21  2  0
 21 22  1  0
 22 23  2  0
 23 24  1  0
 23 25  1  0
 25 26  2  0
 14 27  1  0
 27 28  1  0
 28 29  1  0
 28  2  1  0
 13  6  1  0
 19 15  1  0
 26 20  1  0
M  END
>  <Title>  (1320) 
idABYTgen8

$$$$

     RDKit          2D

 26 28  0  0  0  0  0  0  0  0999 V2000
    3.0000    0.0000    0.0000 C   0  0  0  0  0  0  0  0  0  0  0  0
    1.5000    0.0000    0.0000 C   0  0  0  0  0  0  0  0  0  0  0  0
    0.7500   -1.2990    0.0000 C   0  0  0  0  0  0  0  0  0  0  0  0
   -0.7500   -1.2990    0.0000 C   0  0  0  0  0  0  0  0  0  0  0  0
   -1.5000    0.0000    0.0000 C   0  0  0  0  0  0  0  0  0  0  0  0
   -3.0000    0.0000    0.0000 C   0  0  0  0  0  0  0  0  0  0  0  0
   -3.7500   -1.2990    0.0000 O   0  0  0  0  0  0  0  0  0  0  0  0
   -3.7500    1.2990    0.0000 N   0  0  0  0  0  0  0  0  0  0  0  0
   -5.2500    1.2990    0.0000 C   0  0  0  0  0  0  0  0  0  0  0  0
   -6.1317    0.0855    0.0000 N   0  0  0  0  0  0  0  0  0  0  0  0
   -7.5583    0.5490    0.0000 N   0  0  0  0  0  0  0  0  0  0  0  0
   -7.5583    2.0490    0.0000 N   0  0  0  0  0  0  0  0  0  0  0  0
   -6.1317    2.5126    0.0000 N   0  0  0  0  0  0  0  0  0  0  0  0
   -5.6682    3.9391    0.0000 C   0  0  0  0  0  0  0  0  0  0  0  0
   -4.2009    4.2510    0.0000 C   0  0  0  0  0  0  0  0  0  0  0  0
   -3.7374    5.6776    0.0000 C   0  0  0  0  0  0  0  0  0  0  0  0
   -4.7411    6.7923    0.0000 C   0  0  0  0  0  0  0  0  0  0  0  0
   -4.2776    8.2189    0.0000 C   0  0  0  0  0  0  0  0  0  0  0  0
   -5.2813    9.3336    0.0000 O   0  0  0  0  0  0  0  0  0  0  0  0
   -2.8104    8.5308    0.0000 N   0  0  0  0  0  0  0  0  0  0  0  0
   -2.3468    9.9574    0.0000 O   0  0  0  0  0  0  0  0  0  0  0  0
   -6.2083    6.4805    0.0000 C   0  0  0  0  0  0  0  0  0  0  0  0
   -6.6718    5.0539    0.0000 C   0  0  0  0  0  0  0  0  0  0  0  0
   -0.7500    1.2990    0.0000 C   0  0  0  0  0  0  0  0  0  0  0  0
   -1.5000    2.5981    0.0000 O   0  0  0  0  0  0  0  0  0  0  0  0
    0.7500    1.2990    0.0000 N   0  0  0  0  0  0  0  0  0  0  0  0
  1  2  1  0
  2  3  2  0
  3  4  1  0
  4  5  2  0
  5  6  1  0
  6  7  2  0
  6  8  1  0
  8  9  1  0
  9 10  2  0
 10 11  1  0
 11 12  2  0
 12 13  1  0
 13 14  1  0
 14 15  2  0
 15 16  1  0
 16 17  2  0
 17 18  1  0
 18 19  2  0
 18 20  1  0
 20 21  1  0
 17 22  1  0
 22 23  1  0
  5 24  1  0
 24 25  2  0
 24 26  1  0
 26  2  1  0
 13  9  1  0
 23 14  1  0
M  END
>  <Title>  (1321) 
idABYUgen8

$$$$

     RDKit          2D

 20 20  0  0  0  0  0  0  0  0999 V2000
    5.8191    0.0000    0.0000 C   0  0  0  0  0  0  0  0  0  0  0  0
    4.3191    0.0000    0.0000 C   0  0  0  0  0  0  0  0  0  0  0  0
    4.0586   -1.4772    0.0000 C   0  0  0  0  0  0  0  0  0  0  0  0
    3.3086   -2.7762    0.0000 C   0  0  0  0  0  0  0  0  0  0  0  0
    2.1595   -3.7404    0.0000 C   0  0  0  0  0  0  0  0  0  0  0  0
    0.7500   -4.2535    0.0000 C   0  0  0  0  0  0  0  0  0  0  0  0
   -0.7500   -4.2535    0.0000 C   0  0  0  0  0  0  0  0  0  0  0  0
   -2.1595   -3.7404    0.0000 C   0  0  0  0  0  0  0  0  0  0  0  0
   -3.3086   -2.7762    0.0000 C   0  0  0  0  0  0  0  0  0  0  0  0
   -4.0586   -1.4772    0.0000 C   0  0  0  0  0  0  0  0  0  0  0  0
   -4.3191    0.0000    0.0000 C   0  0  0  0  0  0  0  0  0  0  0  0
   -4.0586    1.4772    0.0000 C   0  0  0  0  0  0  0  0  0  0  0  0
   -3.3086    2.7762    0.0000 C   0  0  0  0  0  0  0  0  0  0  0  0
   -2.1595    3.7404    0.0000 C   0  0  0  0  0  0  0  0  0  0  0  0
   -0.7500    4.2535    0.0000 C   0  0  0  0  0  0  0  0  0  0  0  0
    0.7500    4.2535    0.0000 C   0  0  0  0  0  0  0  0  0  0  0  0
    2.1595    3.7404    0.0000 C   0  0  0  0  0  0  0  0  0  0  0  0
    3.3086    2.7762    0.0000 C   0  0  0  0  0  0  0  0  0  0  0  0
    4.0586    1.4772    0.0000 C   0  0  0  0  0  0  0  0  0  0  0  0
    5.4681    1.9902    0.0000 O   0  0  0  0  0  0  0  0  0  0  0  0
  1  2  1  0
  2  3  2  0
  3  4  1  0
  4  5  2  0
  5  6  1  0
  6  7  2  0
  7  8  1  0
  8  9  2  0
  9 10  1  0
 10 11  2  0
 11 12  1  0
 12 13  2  0
 13 14  1  0
 14 15  2  0
 15 16  1  0
 16 17  2  0
 17 18  1  0
 18 19  2  0
 19 20  1  0
 19  2  1  0
M  END
>  <Title>  (1322) 
idABYVgen8

$$$$

     RDKit          2D

 51 54  0  0  0  0  0  0  0  0999 V2000
    8.6751   -0.0000    0.0000 C   0  0  0  0  0  0  0  0  0  0  0  0
    7.1751    0.0000    0.0000 C   0  0  0  0  0  0  0  0  0  0  0  0
    7.0183   -1.4918    0.0000 C   0  0  0  0  0  0  0  0  0  0  0  0
    6.5548   -2.9184    0.0000 C   0  0  0  0  0  0  0  0  0  0  0  0
    5.8048   -4.2174    0.0000 C   0  0  0  0  0  0  0  0  0  0  0  0
    4.8011   -5.3321    0.0000 C   0  0  0  0  0  0  0  0  0  0  0  0
    3.5875   -6.2138    0.0000 C   0  0  0  0  0  0  0  0  0  0  0  0
    2.2172   -6.8239    0.0000 C   0  0  0  0  0  0  0  0  0  0  0  0
    0.7500   -7.1358    0.0000 C   0  0  0  0  0  0  0  0  0  0  0  0
   -0.7500   -7.1358    0.0000 C   0  0  0  0  0  0  0  0  0  0  0  0
   -2.2172   -6.8239    0.0000 C   0  0  0  0  0  0  0  0  0  0  0  0
   -3.5875   -6.2138    0.0000 C   0  0  0  0  0  0  0  0  0  0  0  0
   -4.8011   -5.3321    0.0000 C   0  0  0  0  0  0  0  0  0  0  0  0
   -5.8048   -4.2174    0.0000 C   0  0  0  0  0  0  0  0  0  0  0  0
   -6.5548   -2.9184    0.0000 C   0  0  0  0  0  0  0  0  0  0  0  0
   -7.0183   -1.4918    0.0000 C   0  0  0  0  0  0  0  0  0  0  0  0
   -7.1751    0.0000    0.0000 C   0  0  0  0  0  0  0  0  0  0  0  0
   -7.0183    1.4918    0.0000 C   0  0  0  0  0  0  0  0  0  0  0  0
   -6.5548    2.9184    0.0000 C   0  0  0  0  0  0  0  0  0  0  0  0
   -5.8048    4.2174    0.0000 C   0  0  0  0  0  0  0  0  0  0  0  0
   -4.8011    5.3321    0.0000 C   0  0  0  0  0  0  0  0  0  0  0  0
   -3.5875    6.2138    0.0000 C   0  0  0  0  0  0  0  0  0  0  0  0
   -2.2172    6.8239    0.0000 C   0  0  0  0  0  0  0  0  0  0  0  0
   -0.7500    7.1358    0.0000 C   0  0  0  0  0  0  0  0  0  0  0  0
    0.7500    7.1358    0.0000 C   0  0  0  0  0  0  0  0  0  0  0  0
    2.2172    6.8239    0.0000 C   0  0  0  0  0  0  0  0  0  0  0  0
    3.5875    6.2138    0.0000 C   0  0  0  0  0  0  0  0  0  0  0  0
    4.8011    5.3321    0.0000 C   0  0  0  0  0  0  0  0  0  0  0  0
    5.8048    4.2174    0.0000 C   0  0  0  0  0  0  0  0  0  0  0  0
    6.5548    2.9184    0.0000 C   0  0  0  0  0  0  0  0  0  0  0  0
    7.0183    1.4918    0.0000 C   0  0  0  0  0  0  0  0  0  0  0  0
    8.0548    2.9184    0.0000 C   0  0  0  0  0  0  0  0  0  0  0  0
    8.8048    1.6193    0.0000 N   0  0  0  0  0  0  0  0  0  0  0  0
   10.3048    1.6193    0.0000 N   0  0  0  0  0  0  0  0  0  0  0  0
   11.0548    0.3203    0.0000 N   0  0  0  0  0  0  0  0  0  0  0  0
   10.3048   -0.9787    0.0000 N   0  0  0  0  0  0  0  0  0  0  0  0
   11.0548   -2.2778    0.0000 N   0  0  0  0  0  0  0  0  0  0  0  0
   12.5548   -2.2778    0.0000 N   0  0  0  0  0  0  0  0  0  0  0  0
   13.3048   -0.9787    0.0000 N   0  0  0  0  0  0  0  0  0  0  0  0
   12.5548    0.3203    0.0000 N   0  0  0  0  0  0  0  0  0  0  0  0
   13.3048    1.6193    0.0000 C   0  0  0  0  0  0  0  0  0  0  0  0
   14.8048    1.6193    0.0000 C   0  0  0  0  0  0  0  0  0  0  0  0
   15.5548    2.9184    0.0000 C   0  0  0  0  0  0  0  0  0  0  0  0
   14.8048    4.2174    0.0000 C   0  0  0  0  0  0  0  0  0  0  0  0
   15.5548    5.5164    0.0000 C   0  0  0  0  0  0  0  0  0  0  0  0
   13.3048    4.2174    0.0000 N   0  0  0  0  0  0  0  0  0  0  0  0
   12.5548    2.9184    0.0000 C   0  0  0  0  0  0  0  0  0  0  0  0
   11.0548    2.9184    0.0000 O   0  0  0  0  0  0  0  0  0  0  0  0
    8.8048    4.2174    0.0000 C   0  0  0  0  0  0  0  0  0  0  0  0
    8.0548    5.5164    0.0000 C   0  0  0  0  0  0  0  0  0  0  0  0
    6.5548    5.5164    0.0000 C   0  0  0  0  0  0  0  0  0  0  0  0
  1  2  1  0
  2  3  2  0
  3  4  1  0
  4  5  2  0
  5  6  1  0
  6  7  2  0
  7  8  1  0
  8  9  2  0
  9 10  1  0
 10 11  2  0
 11 12  1  0
 12 13  2  0
 13 14  1  0
 14 15  2  0
 15 16  1  0
 16 17  2  0
 17 18  1  0
 18 19  2  0
 19 20  1  0
 20 21  2  0
 21 22  1  0
 22 23  2  0
 23 24  1  0
 24 25  2  0
 25 26  1  0
 26 27  2  0
 27 28  1  0
 28 29  2  0
 29 30  1  0
 30 31  2  0
 30 32  1  0
 32 33  1  0
 33 34  2  3
 34 35  1  0
 35 36  1  0
 36 37  2  0
 37 38  1  0
 38 39  2  0
 39 40  1  0
 40 41  1  0
 41 42  2  0
 42 43  1  0
 43 44  2  0
 44 45  1  0
 44 46  1  0
 46 47  1  0
 47 48  2  0
 32 49  2  0
 49 50  1  0
 50 51  1  0
 31  2  1  0
 40 35  1  0
 47 41  1  0
 51 29  1  0
M  END
>  <Title>  (1323) 
idABYWgen8

$$$$

     RDKit          2D

 71 79  0  0  0  0  0  0  0  0999 V2000
   -1.2990    7.9960    0.0000 C   0  0  0  0  0  0  0  0  0  0  0  0
    0.0000    7.2460    0.0000 O   0  0  0  0  0  0  0  0  0  0  0  0
    0.0000    5.7460    0.0000 C   0  0  0  0  0  0  0  0  0  0  0  0
   -1.4872    5.5502    0.0000 C   0  0  0  0  0  0  0  0  0  0  0  0
   -2.8730    4.9762    0.0000 C   0  0  0  0  0  0  0  0  0  0  0  0
   -4.0630    4.0630    0.0000 C   0  0  0  0  0  0  0  0  0  0  0  0
   -4.9762    2.8730    0.0000 C   0  0  0  0  0  0  0  0  0  0  0  0
   -5.5502    1.4872    0.0000 C   0  0  0  0  0  0  0  0  0  0  0  0
   -5.7460    0.0000    0.0000 C   0  0  0  0  0  0  0  0  0  0  0  0
   -5.5502   -1.4872    0.0000 C   0  0  0  0  0  0  0  0  0  0  0  0
   -4.9762   -2.8730    0.0000 C   0  0  0  0  0  0  0  0  0  0  0  0
   -4.0630   -4.0630    0.0000 C   0  0  0  0  0  0  0  0  0  0  0  0
   -2.8730   -4.9762    0.0000 C   0  0  0  0  0  0  0  0  0  0  0  0
   -1.4872   -5.5502    0.0000 C   0  0  0  0  0  0  0  0  0  0  0  0
   -0.0000   -5.7460    0.0000 C   0  0  0  0  0  0  0  0  0  0  0  0
    1.4872   -5.5502    0.0000 C   0  0  0  0  0  0  0  0  0  0  0  0
    2.8730   -4.9762    0.0000 C   0  0  0  0  0  0  0  0  0  0  0  0
    4.0630   -4.0630    0.0000 C   0  0  0  0  0  0  0  0  0  0  0  0
    4.9762   -2.8730    0.0000 C   0  0  0  0  0  0  0  0  0  0  0  0
    5.5502   -1.4872    0.0000 C   0  0  0  0  0  0  0  0  0  0  0  0
    5.7460    0.0000    0.0000 C   0  0  0  0  0  0  0  0  0  0  0  0
    5.5502    1.4872    0.0000 C   0  0  0  0  0  0  0  0  0  0  0  0
    4.9762    2.8730    0.0000 C   0  0  0  0  0  0  0  0  0  0  0  0
    4.0630    4.0630    0.0000 C   0  0  0  0  0  0  0  0  0  0  0  0
    5.1237    5.1237    0.0000 C   0  0  0  0  0  0  0  0  0  0  0  0
    4.8890    6.6052    0.0000 N   0  0  0  0  0  0  0  0  0  0  0  0
    6.2255    7.2862    0.0000 N   0  0  0  0  0  0  0  0  0  0  0  0
    7.2862    6.2255    0.0000 N   0  0  0  0  0  0  0  0  0  0  0  0
    6.6052    4.8890    0.0000 N   0  0  0  0  0  0  0  0  0  0  0  0
    7.2862    3.5525    0.0000 C   0  0  0  0  0  0  0  0  0  0  0  0
    6.4692    2.2945    0.0000 C   0  0  0  0  0  0  0  0  0  0  0  0
    7.1502    0.9580    0.0000 C   0  0  0  0  0  0  0  0  0  0  0  0
    8.6482    0.8795    0.0000 C   0  0  0  0  0  0  0  0  0  0  0  0
    9.3292   -0.4570    0.0000 C   0  0  0  0  0  0  0  0  0  0  0  0
    8.6482   -1.7935    0.0000 N   0  0  0  0  0  0  0  0  0  0  0  0
    9.7088   -2.8542    0.0000 N   0  0  0  0  0  0  0  0  0  0  0  0
   11.0453   -2.1732    0.0000 N   0  0  0  0  0  0  0  0  0  0  0  0
   10.8107   -0.6917    0.0000 N   0  0  0  0  0  0  0  0  0  0  0  0
   11.8713    0.3690    0.0000 C   0  0  0  0  0  0  0  0  0  0  0  0
   11.4831    1.8179    0.0000 C   0  0  0  0  0  0  0  0  0  0  0  0
   12.5438    2.8785    0.0000 C   0  0  0  0  0  0  0  0  0  0  0  0
   13.9927    2.4903    0.0000 C   0  0  0  0  0  0  0  0  0  0  0  0
   14.3809    1.0414    0.0000 C   0  0  0  0  0  0  0  0  0  0  0  0
   13.3202   -0.0192    0.0000 C   0  0  0  0  0  0  0  0  0  0  0  0
    9.4651    2.1375    0.0000 C   0  0  0  0  0  0  0  0  0  0  0  0
    8.7841    3.4740    0.0000 C   0  0  0  0  0  0  0  0  0  0  0  0
    9.6011    4.7320    0.0000 C   0  0  0  0  0  0  0  0  0  0  0  0
   11.0990    4.6535    0.0000 C   0  0  0  0  0  0  0  0  0  0  0  0
   11.9160    5.9115    0.0000 C   0  0  0  0  0  0  0  0  0  0  0  0
   11.2350    7.2480    0.0000 C   0  0  0  0  0  0  0  0  0  0  0  0
   12.0520    8.5060    0.0000 C   0  0  0  0  0  0  0  0  0  0  0  0
   11.5144    9.9064    0.0000 N   0  0  0  0  0  0  0  0  0  0  0  0
   12.6801   10.8504    0.0000 N   0  0  0  0  0  0  0  0  0  0  0  0
   13.9381   10.0334    0.0000 N   0  0  0  0  0  0  0  0  0  0  0  0
   13.5499    8.5845    0.0000 N   0  0  0  0  0  0  0  0  0  0  0  0
   14.4939    7.4188    0.0000 C   0  0  0  0  0  0  0  0  0  0  0  0
   13.9563    6.0184    0.0000 C   0  0  0  0  0  0  0  0  0  0  0  0
   14.9003    4.8527    0.0000 C   0  0  0  0  0  0  0  0  0  0  0  0
   16.3819    5.0874    0.0000 C   0  0  0  0  0  0  0  0  0  0  0  0
   16.9194    6.4878    0.0000 C   0  0  0  0  0  0  0  0  0  0  0  0
   15.9754    7.6535    0.0000 C   0  0  0  0  0  0  0  0  0  0  0  0
   16.5130    9.0538    0.0000 C   0  0  0  0  0  0  0  0  0  0  0  0
   17.9945    9.2885    0.0000 C   0  0  0  0  0  0  0  0  0  0  0  0
   18.5321   10.6889    0.0000 C   0  0  0  0  0  0  0  0  0  0  0  0
   17.5881   11.8546    0.0000 C   0  0  0  0  0  0  0  0  0  0  0  0
   16.1066   11.6199    0.0000 C   0  0  0  0  0  0  0  0  0  0  0  0
   15.5690   10.2196    0.0000 C   0  0  0  0  0  0  0  0  0  0  0  0
    9.7371    7.3265    0.0000 C   0  0  0  0  0  0  0  0  0  0  0  0
    8.9201    6.0685    0.0000 C   0  0  0  0  0  0  0  0  0  0  0  0
    2.8730    4.9762    0.0000 C   0  0  0  0  0  0  0  0  0  0  0  0
    1.4872    5.5502    0.0000 C   0  0  0  0  0  0  0  0  0  0  0  0
  1  2  1  0
  2  3  1  0
  3  4  2  0
  4  5  1  0
  5  6  2  0
  6  7  1  0
  7  8  2  0
  8  9  1  0
  9 10  2  0
 10 11  1  0
 11 12  2  0
 12 13  1  0
 13 14  2  0
 14 15  1  0
 15 16  2  0
 16 17  1  0
 17 18  2  0
 18 19  1  0
 19 20  2  0
 20 21  1  0
 21 22  2  0
 22 23  1  0
 23 24  2  0
 24 25  1  0
 25 26  2  0
 26 27  1  0
 27 28  2  0
 28 29  1  0
 29 30  1  0
 30 31  2  0
 31 32  1  0
 32 33  2  0
 33 34  1  0
 34 35  2  0
 35 36  1  0
 36 37  2  0
 37 38  1  0
 38 39  1  0
 39 40  2  0
 40 41  1  0
 41 42  2  0
 42 43  1  0
 43 44  2  0
 33 45  1  0
 45 46  2  0
 46 47  1  0
 47 48  2  0
 48 49  1  0
 49 50  2  0
 50 51  1  0
 51 52  2  0
 52 53  1  0
 53 54  2  0
 54 55  1  0
 55 56  1  0
 56 57  2  0
 57 58  1  0
 58 59  2  0
 59 60  1  0
 60 61  2  0
 61 62  1  0
 62 63  2  0
 63 64  1  0
 64 65  2  0
 65 66  1  0
 66 67  2  0
 50 68  1  0
 68 69  2  0
 24 70  1  0
 70 71  2  0
 71  3  1  0
 29 25  1  0
 46 30  1  0
 69 47  1  0
 38 34  1  0
 44 39  1  0
 55 51  1  0
 61 56  1  0
 67 62  1  0
M  END
>  <Title>  (1324) 
idABYXgen8

$$$$

     RDKit          2D

 37 41  0  0  0  0  0  0  0  0999 V2000
    3.7500    1.2990    0.0000 C   0  0  0  0  0  0  0  0  0  0  0  0
    3.0000    0.0000    0.0000 O   0  0  0  0  0  0  0  0  0  0  0  0
    1.5000    0.0000    0.0000 C   0  0  0  0  0  0  0  0  0  0  0  0
    0.7500    1.2990    0.0000 C   0  0  0  0  0  0  0  0  0  0  0  0
   -0.7500    1.2990    0.0000 C   0  0  0  0  0  0  0  0  0  0  0  0
   -1.5000    0.0000    0.0000 C   0  0  0  0  0  0  0  0  0  0  0  0
   -3.0000    0.0000    0.0000 C   0  0  0  0  0  0  0  0  0  0  0  0
   -3.7500   -1.2990    0.0000 O   0  0  0  0  0  0  0  0  0  0  0  0
   -3.7500    1.2990    0.0000 N   0  0  0  0  0  0  0  0  0  0  0  0
   -5.2500    1.2990    0.0000 C   0  0  0  0  0  0  0  0  0  0  0  0
   -6.1317    0.0855    0.0000 N   0  0  0  0  0  0  0  0  0  0  0  0
   -7.5583    0.5490    0.0000 N   0  0  0  0  0  0  0  0  0  0  0  0
   -7.5583    2.0490    0.0000 N   0  0  0  0  0  0  0  0  0  0  0  0
   -6.1317    2.5126    0.0000 N   0  0  0  0  0  0  0  0  0  0  0  0
   -5.6682    3.9391    0.0000 C   0  0  0  0  0  0  0  0  0  0  0  0
   -6.5498    5.1527    0.0000 C   0  0  0  0  0  0  0  0  0  0  0  0
   -5.6682    6.3662    0.0000 C   0  0  0  0  0  0  0  0  0  0  0  0
   -4.2416    5.9027    0.0000 C   0  0  0  0  0  0  0  0  0  0  0  0
   -3.0280    6.7844    0.0000 C   0  0  0  0  0  0  0  0  0  0  0  0
   -3.1848    8.2761    0.0000 O   0  0  0  0  0  0  0  0  0  0  0  0
   -1.6577    6.1742    0.0000 N   0  0  0  0  0  0  0  0  0  0  0  0
   -0.4442    7.0559    0.0000 C   0  0  0  0  0  0  0  0  0  0  0  0
   -0.4442    8.5559    0.0000 N   0  0  0  0  0  0  0  0  0  0  0  0
    0.9824    9.0195    0.0000 C   0  0  0  0  0  0  0  0  0  0  0  0
    1.8641    7.8059    0.0000 N   0  0  0  0  0  0  0  0  0  0  0  0
    0.9824    6.5924    0.0000 N   0  0  0  0  0  0  0  0  0  0  0  0
    1.4459    5.1658    0.0000 C   0  0  0  0  0  0  0  0  0  0  0  0
    0.4422    4.0511    0.0000 C   0  0  0  0  0  0  0  0  0  0  0  0
    0.9057    2.6245    0.0000 C   0  0  0  0  0  0  0  0  0  0  0  0
    2.3730    2.3126    0.0000 C   0  0  0  0  0  0  0  0  0  0  0  0
    3.3767    3.4274    0.0000 C   0  0  0  0  0  0  0  0  0  0  0  0
    2.9131    4.8539    0.0000 C   0  0  0  0  0  0  0  0  0  0  0  0
   -4.2416    4.4027    0.0000 C   0  0  0  0  0  0  0  0  0  0  0  0
   -3.0280    3.5210    0.0000 O   0  0  0  0  0  0  0  0  0  0  0  0
   -0.7500   -1.2990    0.0000 C   0  0  0  0  0  0  0  0  0  0  0  0
    0.7500   -1.2990    0.0000 C   0  0  0  0  0  0  0  0  0  0  0  0
    1.5000   -2.5981    0.0000 C   0  0  0  0  0  0  0  0  0  0  0  0
  1  2  1  0
  2  3  1  0
  3  4  2  0
  4  5  1  0
  5  6  2  0
  6  7  1  0
  7  8  2  0
  7  9  1  0
  9 10  1  0
 10 11  2  0
 11 12  1  0
 12 13  2  0
 13 14  1  0
 14 15  1  0
 15 16  2  0
 16 17  1  0
 17 18  2  0
 18 19  1  0
 19 20  2  0
 19 21  1  0
 21 22  1  0
 22 23  2  0
 23 24  1  0
 24 25  2  0
 25 26  1  0
 26 27  1  0
 27 28  2  0
 28 29  1  0
 29 30  2  0
 30 31  1  0
 31 32  2  0
 18 33  1  0
 33 34  2  0
  6 35  1  0
 35 36  2  0
 36 37  1  0
 36  3  1  0
 14 10  1  0
 33 15  1  0
 26 22  1  0
 32 27  1  0
M  END
>  <Title>  (1325) 
idABYYgen8

$$$$

     RDKit          2D

 14 14  0  0  0  0  0  0  0  0999 V2000
    4.3978    0.0000    0.0000 C   0  0  0  0  0  0  0  0  0  0  0  0
    2.8978    0.0000    0.0000 C   0  0  0  0  0  0  0  0  0  0  0  0
    2.5095   -1.4489    0.0000 C   0  0  0  0  0  0  0  0  0  0  0  0
    1.4489   -2.5095    0.0000 C   0  0  0  0  0  0  0  0  0  0  0  0
   -0.0000   -2.8978    0.0000 C   0  0  0  0  0  0  0  0  0  0  0  0
   -1.4489   -2.5095    0.0000 C   0  0  0  0  0  0  0  0  0  0  0  0
   -2.5095   -1.4489    0.0000 C   0  0  0  0  0  0  0  0  0  0  0  0
   -2.8978    0.0000    0.0000 C   0  0  0  0  0  0  0  0  0  0  0  0
   -2.5095    1.4489    0.0000 C   0  0  0  0  0  0  0  0  0  0  0  0
   -1.4489    2.5095    0.0000 C   0  0  0  0  0  0  0  0  0  0  0  0
    0.0000    2.8978    0.0000 C   0  0  0  0  0  0  0  0  0  0  0  0
    0.0000    4.3978    0.0000 F   0  0  0  0  0  0  0  0  0  0  0  0
    1.4489    2.5095    0.0000 C   0  0  0  0  0  0  0  0  0  0  0  0
    2.5095    1.4489    0.0000 C   0  0  0  0  0  0  0  0  0  0  0  0
  1  2  1  0
  2  3  2  0
  3  4  1  0
  4  5  2  0
  5  6  1  0
  6  7  2  0
  7  8  1  0
  8  9  2  0
  9 10  1  0
 10 11  2  0
 11 12  1  0
 11 13  1  0
 13 14  2  0
 14  2  1  0
M  END
>  <Title>  (1326) 
idABYZgen8

$$$$

     RDKit          2D

 39 44  0  0  0  0  0  0  0  0999 V2000
    3.0000    0.0000    0.0000 C   0  0  0  0  0  0  0  0  0  0  0  0
    1.5000    0.0000    0.0000 C   0  0  0  0  0  0  0  0  0  0  0  0
    0.7500    1.2990    0.0000 C   0  0  0  0  0  0  0  0  0  0  0  0
   -0.7500    1.2990    0.0000 C   0  0  0  0  0  0  0  0  0  0  0  0
   -1.5000    0.0000    0.0000 C   0  0  0  0  0  0  0  0  0  0  0  0
   -3.0000    0.0000    0.0000 C   0  0  0  0  0  0  0  0  0  0  0  0
   -3.8817   -1.2135    0.0000 N   0  0  0  0  0  0  0  0  0  0  0  0
   -5.3083   -0.7500    0.0000 N   0  0  0  0  0  0  0  0  0  0  0  0
   -5.3083    0.7500    0.0000 N   0  0  0  0  0  0  0  0  0  0  0  0
   -3.8817    1.2135    0.0000 N   0  0  0  0  0  0  0  0  0  0  0  0
   -3.4182    2.6401    0.0000 C   0  0  0  0  0  0  0  0  0  0  0  0
   -1.9509    2.9520    0.0000 C   0  0  0  0  0  0  0  0  0  0  0  0
   -1.4874    4.3786    0.0000 C   0  0  0  0  0  0  0  0  0  0  0  0
   -2.4911    5.4933    0.0000 C   0  0  0  0  0  0  0  0  0  0  0  0
   -2.0276    6.9199    0.0000 C   0  0  0  0  0  0  0  0  0  0  0  0
   -3.0313    8.0346    0.0000 O   0  0  0  0  0  0  0  0  0  0  0  0
   -0.5604    7.2317    0.0000 N   0  0  0  0  0  0  0  0  0  0  0  0
   -0.0968    8.6583    0.0000 C   0  0  0  0  0  0  0  0  0  0  0  0
   -0.9785    9.8718    0.0000 N   0  0  0  0  0  0  0  0  0  0  0  0
   -0.0968   11.0854    0.0000 N   0  0  0  0  0  0  0  0  0  0  0  0
    1.3298   10.6218    0.0000 N   0  0  0  0  0  0  0  0  0  0  0  0
    1.3298    9.1218    0.0000 N   0  0  0  0  0  0  0  0  0  0  0  0
    2.5433    8.2402    0.0000 C   0  0  0  0  0  0  0  0  0  0  0  0
    2.3865    6.7484    0.0000 C   0  0  0  0  0  0  0  0  0  0  0  0
    3.6000    5.8667    0.0000 C   0  0  0  0  0  0  0  0  0  0  0  0
    4.9703    6.4768    0.0000 C   0  0  0  0  0  0  0  0  0  0  0  0
    5.1271    7.9686    0.0000 C   0  0  0  0  0  0  0  0  0  0  0  0
    3.9136    8.8503    0.0000 C   0  0  0  0  0  0  0  0  0  0  0  0
    4.0704   10.3421    0.0000 C   0  0  0  0  0  0  0  0  0  0  0  0
    5.4407   10.9522    0.0000 C   0  0  0  0  0  0  0  0  0  0  0  0
    5.5975   12.4439    0.0000 C   0  0  0  0  0  0  0  0  0  0  0  0
    4.3840   13.3256    0.0000 C   0  0  0  0  0  0  0  0  0  0  0  0
    3.0137   12.7155    0.0000 C   0  0  0  0  0  0  0  0  0  0  0  0
    2.8569   11.2237    0.0000 C   0  0  0  0  0  0  0  0  0  0  0  0
   -3.9583    5.1814    0.0000 C   0  0  0  0  0  0  0  0  0  0  0  0
   -4.4218    3.7548    0.0000 C   0  0  0  0  0  0  0  0  0  0  0  0
   -0.7500   -1.2990    0.0000 C   0  0  0  0  0  0  0  0  0  0  0  0
   -1.5000   -2.5981    0.0000 O   0  0  0  0  0  0  0  0  0  0  0  0
    0.7500   -1.2990    0.0000 N   0  0  0  0  0  0  0  0  0  0  0  0
  1  2  1  0
  2  3  2  0
  3  4  1  0
  4  5  2  0
  5  6  1  0
  6  7  2  0
  7  8  1  0
  8  9  2  0
  9 10  1  0
 10 11  1  0
 11 12  2  0
 12 13  1  0
 13 14  2  0
 14 15  1  0
 15 16  2  0
 15 17  1  0
 17 18  1  0
 18 19  2  0
 19 20  1  0
 20 21  2  0
 21 22  1  0
 22 23  1  0
 23 24  2  0
 24 25  1  0
 25 26  2  0
 26 27  1  0
 27 28  2  0
 28 29  1  0
 29 30  2  0
 30 31  1  0
 31 32  2  0
 32 33  1  0
 33 34  2  0
 14 35  1  0
 35 36  2  0
  5 37  1  0
 37 38  2  0
 37 39  1  0
 39  2  1  0
 10  6  1  0
 36 11  1  0
 22 18  1  0
 28 23  1  0
 34 29  1  0
M  END
>  <Title>  (1327) 
idABZAgen8

$$$$

     RDKit          2D

 39 44  0  0  0  0  0  0  0  0999 V2000
    3.0000    0.0000    0.0000 C   0  0  0  0  0  0  0  0  0  0  0  0
    1.5000    0.0000    0.0000 C   0  0  0  0  0  0  0  0  0  0  0  0
    0.7500   -1.2990    0.0000 C   0  0  0  0  0  0  0  0  0  0  0  0
   -0.7500   -1.2990    0.0000 C   0  0  0  0  0  0  0  0  0  0  0  0
   -1.5000    0.0000    0.0000 C   0  0  0  0  0  0  0  0  0  0  0  0
   -3.0000    0.0000    0.0000 C   0  0  0  0  0  0  0  0  0  0  0  0
   -3.8817   -1.2135    0.0000 N   0  0  0  0  0  0  0  0  0  0  0  0
   -5.3083   -0.7500    0.0000 N   0  0  0  0  0  0  0  0  0  0  0  0
   -5.3083    0.7500    0.0000 N   0  0  0  0  0  0  0  0  0  0  0  0
   -3.8817    1.2135    0.0000 N   0  0  0  0  0  0  0  0  0  0  0  0
   -3.4182    2.6401    0.0000 C   0  0  0  0  0  0  0  0  0  0  0  0
   -4.2998    3.8536    0.0000 C   0  0  0  0  0  0  0  0  0  0  0  0
   -3.4182    5.0672    0.0000 C   0  0  0  0  0  0  0  0  0  0  0  0
   -1.9916    4.6036    0.0000 C   0  0  0  0  0  0  0  0  0  0  0  0
   -0.7780    5.4853    0.0000 C   0  0  0  0  0  0  0  0  0  0  0  0
   -0.9348    6.9771    0.0000 O   0  0  0  0  0  0  0  0  0  0  0  0
    0.5923    4.8752    0.0000 N   0  0  0  0  0  0  0  0  0  0  0  0
    1.8058    5.7569    0.0000 C   0  0  0  0  0  0  0  0  0  0  0  0
    1.8058    7.2569    0.0000 N   0  0  0  0  0  0  0  0  0  0  0  0
    3.2324    7.7204    0.0000 N   0  0  0  0  0  0  0  0  0  0  0  0
    4.1141    6.5069    0.0000 N   0  0  0  0  0  0  0  0  0  0  0  0
    3.2324    5.2934    0.0000 N   0  0  0  0  0  0  0  0  0  0  0  0
    3.6959    3.8668    0.0000 C   0  0  0  0  0  0  0  0  0  0  0  0
    2.8142    2.6533    0.0000 N   0  0  0  0  0  0  0  0  0  0  0  0
    3.6959    1.4397    0.0000 N   0  0  0  0  0  0  0  0  0  0  0  0
    5.1225    1.9033    0.0000 N   0  0  0  0  0  0  0  0  0  0  0  0
    5.1225    3.4033    0.0000 N   0  0  0  0  0  0  0  0  0  0  0  0
    6.3360    4.2849    0.0000 C   0  0  0  0  0  0  0  0  0  0  0  0
    6.1792    5.7767    0.0000 C   0  0  0  0  0  0  0  0  0  0  0  0
    7.3928    6.6584    0.0000 C   0  0  0  0  0  0  0  0  0  0  0  0
    8.7631    6.0483    0.0000 C   0  0  0  0  0  0  0  0  0  0  0  0
    9.9766    6.9300    0.0000 C   0  0  0  0  0  0  0  0  0  0  0  0
    8.9199    4.5565    0.0000 N   0  0  0  0  0  0  0  0  0  0  0  0
    7.7063    3.6748    0.0000 C   0  0  0  0  0  0  0  0  0  0  0  0
    7.8631    2.1830    0.0000 O   0  0  0  0  0  0  0  0  0  0  0  0
   -1.9916    3.1036    0.0000 C   0  0  0  0  0  0  0  0  0  0  0  0
   -0.7780    2.2220    0.0000 O   0  0  0  0  0  0  0  0  0  0  0  0
   -0.7500    1.2990    0.0000 N   0  0  0  0  0  0  0  0  0  0  0  0
    0.7500    1.2990    0.0000 N   0  0  0  0  0  0  0  0  0  0  0  0
  1  2  1  0
  2  3  2  0
  3  4  1  0
  4  5  2  0
  5  6  1  0
  6  7  2  0
  7  8  1  0
  8  9  2  0
  9 10  1  0
 10 11  1  0
 11 12  2  0
 12 13  1  0
 13 14  2  0
 14 15  1  0
 15 16  2  0
 15 17  1  0
 17 18  1  0
 18 19  2  0
 19 20  1  0
 20 21  2  0
 21 22  1  0
 22 23  1  0
 23 24  2  0
 24 25  1  0
 25 26  2  0
 26 27  1  0
 27 28  1  0
 28 29  2  0
 29 30  1  0
 30 31  2  0
 31 32  1  0
 31 33  1  0
 33 34  1  0
 34 35  2  0
 14 36  1  0
 36 37  2  0
  5 38  1  0
 38 39  2  0
 39  2  1  0
 10  6  1  0
 36 11  1  0
 22 18  1  0
 27 23  1  0
 34 28  1  0
M  END
>  <Title>  (1328) 
idABZBgen8

$$$$

     RDKit          2D

 26 26  0  0  0  0  0  0  0  0999 V2000
    7.2460    0.0000    0.0000 C   0  0  0  0  0  0  0  0  0  0  0  0
    5.7460    0.0000    0.0000 C   0  0  0  0  0  0  0  0  0  0  0  0
    5.5502   -1.4872    0.0000 C   0  0  0  0  0  0  0  0  0  0  0  0
    4.9762   -2.8730    0.0000 C   0  0  0  0  0  0  0  0  0  0  0  0
    4.0630   -4.0630    0.0000 C   0  0  0  0  0  0  0  0  0  0  0  0
    2.8730   -4.9762    0.0000 C   0  0  0  0  0  0  0  0  0  0  0  0
    1.4872   -5.5502    0.0000 C   0  0  0  0  0  0  0  0  0  0  0  0
   -0.0000   -5.7460    0.0000 C   0  0  0  0  0  0  0  0  0  0  0  0
   -1.4872   -5.5502    0.0000 C   0  0  0  0  0  0  0  0  0  0  0  0
   -2.8730   -4.9762    0.0000 C   0  0  0  0  0  0  0  0  0  0  0  0
   -4.0630   -4.0630    0.0000 C   0  0  0  0  0  0  0  0  0  0  0  0
   -4.9762   -2.8730    0.0000 C   0  0  0  0  0  0  0  0  0  0  0  0
   -5.5502   -1.4872    0.0000 C   0  0  0  0  0  0  0  0  0  0  0  0
   -5.7460    0.0000    0.0000 C   0  0  0  0  0  0  0  0  0  0  0  0
   -5.5502    1.4872    0.0000 C   0  0  0  0  0  0  0  0  0  0  0  0
   -4.9762    2.8730    0.0000 C   0  0  0  0  0  0  0  0  0  0  0  0
   -4.0630    4.0630    0.0000 C   0  0  0  0  0  0  0  0  0  0  0  0
   -2.8730    4.9762    0.0000 C   0  0  0  0  0  0  0  0  0  0  0  0
   -1.4872    5.5502    0.0000 C   0  0  0  0  0  0  0  0  0  0  0  0
    0.0000    5.7460    0.0000 C   0  0  0  0  0  0  0  0  0  0  0  0
    1.4872    5.5502    0.0000 C   0  0  0  0  0  0  0  0  0  0  0  0
    2.8730    4.9762    0.0000 C   0  0  0  0  0  0  0  0  0  0  0  0
    4.0630    4.0630    0.0000 C   0  0  0  0  0  0  0  0  0  0  0  0
    4.9762    2.8730    0.0000 C   0  0  0  0  0  0  0  0  0  0  0  0
    5.5502    1.4872    0.0000 C   0  0  0  0  0  0  0  0  0  0  0  0
    6.9991    1.8754    0.0000 O   0  0  0  0  0  0  0  0  0  0  0  0
  1  2  1  0
  2  3  2  0
  3  4  1  0
  4  5  2  0
  5  6  1  0
  6  7  2  0
  7  8  1  0
  8  9  2  0
  9 10  1  0
 10 11  2  0
 11 12  1  0
 12 13  2  0
 13 14  1  0
 14 15  2  0
 15 16  1  0
 16 17  2  0
 17 18  1  0
 18 19  2  0
 19 20  1  0
 20 21  2  0
 21 22  1  0
 22 23  2  0
 23 24  1  0
 24 25  2  0
 25 26  1  0
 25  2  1  0
M  END
>  <Title>  (1329) 
idABZCgen8

$$$$

     RDKit          2D

 33 37  0  0  0  0  0  0  0  0999 V2000
    3.0000    0.0000    0.0000 C   0  0  0  0  0  0  0  0  0  0  0  0
    1.5000    0.0000    0.0000 C   0  0  0  0  0  0  0  0  0  0  0  0
    0.7500   -1.2990    0.0000 C   0  0  0  0  0  0  0  0  0  0  0  0
   -0.7500   -1.2990    0.0000 C   0  0  0  0  0  0  0  0  0  0  0  0
   -1.5000    0.0000    0.0000 C   0  0  0  0  0  0  0  0  0  0  0  0
   -3.0000    0.0000    0.0000 C   0  0  0  0  0  0  0  0  0  0  0  0
   -3.8817   -1.2135    0.0000 N   0  0  0  0  0  0  0  0  0  0  0  0
   -5.3083   -0.7500    0.0000 N   0  0  0  0  0  0  0  0  0  0  0  0
   -5.3083    0.7500    0.0000 N   0  0  0  0  0  0  0  0  0  0  0  0
   -3.8817    1.2135    0.0000 N   0  0  0  0  0  0  0  0  0  0  0  0
   -3.4182    2.6401    0.0000 C   0  0  0  0  0  0  0  0  0  0  0  0
   -4.2998    3.8536    0.0000 C   0  0  0  0  0  0  0  0  0  0  0  0
   -3.4182    5.0672    0.0000 C   0  0  0  0  0  0  0  0  0  0  0  0
   -1.9916    4.6036    0.0000 C   0  0  0  0  0  0  0  0  0  0  0  0
   -0.7780    5.4853    0.0000 C   0  0  0  0  0  0  0  0  0  0  0  0
    0.5923    4.8752    0.0000 O   0  0  0  0  0  0  0  0  0  0  0  0
   -0.9348    6.9771    0.0000 N   0  0  0  0  0  0  0  0  0  0  0  0
    0.2787    7.8588    0.0000 C   0  0  0  0  0  0  0  0  0  0  0  0
    1.7053    7.3952    0.0000 N   0  0  0  0  0  0  0  0  0  0  0  0
    2.5870    8.6088    0.0000 N   0  0  0  0  0  0  0  0  0  0  0  0
    1.7053    9.8223    0.0000 N   0  0  0  0  0  0  0  0  0  0  0  0
    0.2787    9.3588    0.0000 N   0  0  0  0  0  0  0  0  0  0  0  0
   -0.9348   10.2405    0.0000 C   0  0  0  0  0  0  0  0  0  0  0  0
   -2.3052    9.6303    0.0000 C   0  0  0  0  0  0  0  0  0  0  0  0
   -3.5187   10.5120    0.0000 C   0  0  0  0  0  0  0  0  0  0  0  0
   -3.3619   12.0038    0.0000 C   0  0  0  0  0  0  0  0  0  0  0  0
   -1.9916   12.6139    0.0000 C   0  0  0  0  0  0  0  0  0  0  0  0
   -0.7780   11.7322    0.0000 C   0  0  0  0  0  0  0  0  0  0  0  0
   -1.9916    3.1036    0.0000 C   0  0  0  0  0  0  0  0  0  0  0  0
   -0.7780    2.2220    0.0000 O   0  0  0  0  0  0  0  0  0  0  0  0
   -0.7500    1.2990    0.0000 N   0  0  0  0  0  0  0  0  0  0  0  0
    0.7500    1.2990    0.0000 C   0  0  0  0  0  0  0  0  0  0  0  0
    1.5000    2.5981    0.0000 O   0  0  0  0  0  0  0  0  0  0  0  0
  1  2  1  0
  2  3  2  0
  3  4  1  0
  4  5  2  0
  5  6  1  0
  6  7  2  0
  7  8  1  0
  8  9  2  0
  9 10  1  0
 10 11  1  0
 11 12  2  0
 12 13  1  0
 13 14  2  0
 14 15  1  0
 15 16  2  0
 15 17  1  0
 17 18  1  0
 18 19  2  0
 19 20  1  0
 20 21  2  0
 21 22  1  0
 22 23  1  0
 23 24  2  0
 24 25  1  0
 25 26  2  0
 26 27  1  0
 27 28  2  0
 14 29  1  0
 29 30  2  0
  5 31  1  0
 31 32  1  0
 32 33  2  0
 32  2  1  0
 10  6  1  0
 29 11  1  0
 22 18  1  0
 28 23  1  0
M  END
>  <Title>  (1330) 
idABZDgen8

$$$$

     RDKit          2D

 16 17  0  0  0  0  0  0  0  0999 V2000
    4.9233    5.9293    0.0000 C   0  0  0  0  0  0  0  0  0  0  0  0
    3.4233    5.9293    0.0000 O   0  0  0  0  0  0  0  0  0  0  0  0
    2.6733    4.6303    0.0000 C   0  0  0  0  0  0  0  0  0  0  0  0
    3.5183    3.3909    0.0000 C   0  0  0  0  0  0  0  0  0  0  0  0
    3.0761    1.9576    0.0000 C   0  0  0  0  0  0  0  0  0  0  0  0
    1.6798    1.4095    0.0000 C   0  0  0  0  0  0  0  0  0  0  0  0
    2.1929    0.0000    0.0000 C   0  0  0  0  0  0  0  0  0  0  0  0
    1.6798   -1.4095    0.0000 C   0  0  0  0  0  0  0  0  0  0  0  0
    0.3808   -2.1595    0.0000 C   0  0  0  0  0  0  0  0  0  0  0  0
   -1.0964   -1.8991    0.0000 C   0  0  0  0  0  0  0  0  0  0  0  0
   -2.0606   -0.7500    0.0000 C   0  0  0  0  0  0  0  0  0  0  0  0
   -2.0606    0.7500    0.0000 C   0  0  0  0  0  0  0  0  0  0  0  0
   -1.0964    1.8991    0.0000 C   0  0  0  0  0  0  0  0  0  0  0  0
    0.3808    2.1595    0.0000 C   0  0  0  0  0  0  0  0  0  0  0  0
    0.1572    3.6428    0.0000 C   0  0  0  0  0  0  0  0  0  0  0  0
    1.1775    4.7424    0.0000 C   0  0  0  0  0  0  0  0  0  0  0  0
  1  2  1  0
  2  3  1  0
  3  4  2  0
  4  5  1  0
  5  6  2  0
  6  7  1  0
  7  8  2  0
  8  9  1  0
  9 10  2  0
 10 11  1  0
 11 12  2  0
 12 13  1  0
 13 14  2  0
 14 15  1  0
 15 16  2  0
 16  3  1  0
 14  6  1  0
M  END
>  <Title>  (1331) 
idABZEgen8

$$$$

     RDKit          2D

 33 36  0  0  0  0  0  0  0  0999 V2000
   -0.7719    6.9572    0.0000 C   0  0  0  0  0  0  0  0  0  0  0  0
   -1.3199    5.5609    0.0000 O   0  0  0  0  0  0  0  0  0  0  0  0
   -0.3846    4.3881    0.0000 C   0  0  0  0  0  0  0  0  0  0  0  0
    1.0777    4.7219    0.0000 C   0  0  0  0  0  0  0  0  0  0  0  0
    2.2505    3.7867    0.0000 C   0  0  0  0  0  0  0  0  0  0  0  0
    2.2505    2.2867    0.0000 C   0  0  0  0  0  0  0  0  0  0  0  0
    3.6019    1.6359    0.0000 C   0  0  0  0  0  0  0  0  0  0  0  0
    3.7140    0.1401    0.0000 O   0  0  0  0  0  0  0  0  0  0  0  0
    4.8413    2.4808    0.0000 N   0  0  0  0  0  0  0  0  0  0  0  0
    6.1928    1.8300    0.0000 C   0  0  0  0  0  0  0  0  0  0  0  0
    6.4606    0.3541    0.0000 N   0  0  0  0  0  0  0  0  0  0  0  0
    7.9470    0.1528    0.0000 N   0  0  0  0  0  0  0  0  0  0  0  0
    8.5978    1.5042    0.0000 N   0  0  0  0  0  0  0  0  0  0  0  0
    7.5137    2.5408    0.0000 N   0  0  0  0  0  0  0  0  0  0  0  0
    7.7150    4.0272    0.0000 C   0  0  0  0  0  0  0  0  0  0  0  0
    6.5284    4.9448    0.0000 C   0  0  0  0  0  0  0  0  0  0  0  0
    6.7297    6.4313    0.0000 C   0  0  0  0  0  0  0  0  0  0  0  0
    8.1177    7.0001    0.0000 C   0  0  0  0  0  0  0  0  0  0  0  0
    8.3191    8.4865    0.0000 C   0  0  0  0  0  0  0  0  0  0  0  0
    7.1324    9.4041    0.0000 O   0  0  0  0  0  0  0  0  0  0  0  0
    9.7070    9.0554    0.0000 N   0  0  0  0  0  0  0  0  0  0  0  0
    9.9084   10.5418    0.0000 O   0  0  0  0  0  0  0  0  0  0  0  0
    9.3043    6.0825    0.0000 C   0  0  0  0  0  0  0  0  0  0  0  0
    9.1030    4.5961    0.0000 C   0  0  0  0  0  0  0  0  0  0  0  0
    1.0777    1.3515    0.0000 N   0  0  0  0  0  0  0  0  0  0  0  0
    1.7286    0.0000    0.0000 N   0  0  0  0  0  0  0  0  0  0  0  0
    1.0777   -1.3515    0.0000 N   0  0  0  0  0  0  0  0  0  0  0  0
   -0.3846   -1.6852    0.0000 N   0  0  0  0  0  0  0  0  0  0  0  0
   -1.5574   -0.7500    0.0000 N   0  0  0  0  0  0  0  0  0  0  0  0
   -1.5574    0.7500    0.0000 N   0  0  0  0  0  0  0  0  0  0  0  0
   -0.3846    1.6852    0.0000 C   0  0  0  0  0  0  0  0  0  0  0  0
   -1.0355    3.0367    0.0000 C   0  0  0  0  0  0  0  0  0  0  0  0
   -2.5355    3.0367    0.0000 O   0  0  0  0  0  0  0  0  0  0  0  0
  1  2  1  0
  2  3  1  0
  3  4  2  0
  4  5  1  0
  5  6  2  0
  6  7  1  0
  7  8  2  0
  7  9  1  0
  9 10  1  0
 10 11  2  0
 11 12  1  0
 12 13  2  0
 13 14  1  0
 14 15  1  0
 15 16  2  0
 16 17  1  0
 17 18  2  0
 18 19  1  0
 19 20  2  0
 19 21  1  0
 21 22  1  0
 18 23  1  0
 23 24  1  0
  6 25  1  0
 25 26  1  0
 26 27  2  0
 27 28  1  0
 28 29  2  0
 29 30  1  0
 30 31  2  0
 31 32  1  0
 32 33  2  0
 32  3  1  0
 14 10  1  0
 24 15  1  0
 31 25  1  0
M  END
>  <Title>  (1332) 
idABZFgen8

$$$$

     RDKit          2D

 42 48  0  0  0  0  0  0  0  0999 V2000
   -1.5000  -10.3923    0.0000 C   0  0  0  0  0  0  0  0  0  0  0  0
   -0.7500   -9.0933    0.0000 C   0  0  0  0  0  0  0  0  0  0  0  0
   -1.5000   -7.7942    0.0000 C   0  0  0  0  0  0  0  0  0  0  0  0
   -0.7500   -6.4952    0.0000 C   0  0  0  0  0  0  0  0  0  0  0  0
    0.7500   -6.4952    0.0000 C   0  0  0  0  0  0  0  0  0  0  0  0
    1.5000   -5.1962    0.0000 N   0  0  0  0  0  0  0  0  0  0  0  0
    3.0000   -5.1962    0.0000 N   0  0  0  0  0  0  0  0  0  0  0  0
    3.7500   -3.8971    0.0000 N   0  0  0  0  0  0  0  0  0  0  0  0
    3.0000   -2.5981    0.0000 N   0  0  0  0  0  0  0  0  0  0  0  0
    1.5000   -2.5981    0.0000 N   0  0  0  0  0  0  0  0  0  0  0  0
    0.7500   -3.8971    0.0000 N   0  0  0  0  0  0  0  0  0  0  0  0
   -0.7500   -3.8971    0.0000 C   0  0  0  0  0  0  0  0  0  0  0  0
   -1.5000   -5.1962    0.0000 C   0  0  0  0  0  0  0  0  0  0  0  0
   -3.0000   -5.1962    0.0000 C   0  0  0  0  0  0  0  0  0  0  0  0
   -3.7500   -3.8971    0.0000 C   0  0  0  0  0  0  0  0  0  0  0  0
   -3.0000   -2.5981    0.0000 C   0  0  0  0  0  0  0  0  0  0  0  0
   -1.5000   -2.5981    0.0000 C   0  0  0  0  0  0  0  0  0  0  0  0
   -0.7500   -1.2990    0.0000 N   0  0  0  0  0  0  0  0  0  0  0  0
    0.7500   -1.2990    0.0000 N   0  0  0  0  0  0  0  0  0  0  0  0
    1.5000   -0.0000    0.0000 N   0  0  0  0  0  0  0  0  0  0  0  0
    0.7500    1.2990    0.0000 N   0  0  0  0  0  0  0  0  0  0  0  0
   -0.7500    1.2990    0.0000 N   0  0  0  0  0  0  0  0  0  0  0  0
   -1.5000   -0.0000    0.0000 N   0  0  0  0  0  0  0  0  0  0  0  0
   -3.0000    0.0000    0.0000 C   0  0  0  0  0  0  0  0  0  0  0  0
   -3.8817   -1.2135    0.0000 C   0  0  0  0  0  0  0  0  0  0  0  0
   -5.3083   -0.7500    0.0000 C   0  0  0  0  0  0  0  0  0  0  0  0
   -5.3083    0.7500    0.0000 C   0  0  0  0  0  0  0  0  0  0  0  0
   -6.5218    1.6317    0.0000 C   0  0  0  0  0  0  0  0  0  0  0  0
   -7.9484    1.1682    0.0000 N   0  0  0  0  0  0  0  0  0  0  0  0
   -8.8301    2.3817    0.0000 N   0  0  0  0  0  0  0  0  0  0  0  0
   -7.9484    3.5952    0.0000 N   0  0  0  0  0  0  0  0  0  0  0  0
   -6.5218    3.1317    0.0000 N   0  0  0  0  0  0  0  0  0  0  0  0
   -5.3083    4.0134    0.0000 C   0  0  0  0  0  0  0  0  0  0  0  0
   -3.9379    3.4033    0.0000 C   0  0  0  0  0  0  0  0  0  0  0  0
   -2.7244    4.2849    0.0000 C   0  0  0  0  0  0  0  0  0  0  0  0
   -2.8812    5.7767    0.0000 C   0  0  0  0  0  0  0  0  0  0  0  0
   -4.2515    6.3868    0.0000 C   0  0  0  0  0  0  0  0  0  0  0  0
   -5.4651    5.5051    0.0000 C   0  0  0  0  0  0  0  0  0  0  0  0
   -3.8817    1.2135    0.0000 C   0  0  0  0  0  0  0  0  0  0  0  0
   -3.4182    2.6401    0.0000 O   0  0  0  0  0  0  0  0  0  0  0  0
    1.5000   -7.7942    0.0000 C   0  0  0  0  0  0  0  0  0  0  0  0
    0.7500   -9.0933    0.0000 C   0  0  0  0  0  0  0  0  0  0  0  0
  1  2  1  0
  2  3  2  0
  3  4  1  0
  4  5  2  0
  5  6  1  0
  6  7  1  0
  7  8  2  0
  8  9  1  0
  9 10  2  0
 10 11  1  0
 11 12  1  0
 12 13  2  0
 13 14  1  0
 14 15  2  0
 15 16  1  0
 16 17  2  0
 17 18  1  0
 18 19  1  0
 19 20  2  0
 20 21  1  0
 21 22  2  0
 22 23  1  0
 23 24  1  0
 24 25  2  0
 25 26  1  0
 26 27  2  0
 27 28  1  0
 28 29  2  0
 29 30  1  0
 30 31  2  0
 31 32  1  0
 32 33  1  0
 33 34  2  0
 34 35  1  0
 35 36  2  0
 36 37  1  0
 37 38  2  0
 27 39  1  0
 39 40  2  0
  5 41  1  0
 41 42  2  0
 42  2  1  0
 11  6  1  0
 17 12  1  0
 23 18  1  0
 39 24  1  0
 32 28  1  0
 38 33  1  0
M  END
>  <Title>  (1333) 
idABZGgen8

$$$$

     RDKit          2D

 23 24  0  0  0  0  0  0  0  0999 V2000
    8.6540   -4.5214    0.0000 C   0  0  0  0  0  0  0  0  0  0  0  0
    7.8718   -3.2415    0.0000 O   0  0  0  0  0  0  0  0  0  0  0  0
    6.3723   -3.2789    0.0000 C   0  0  0  0  0  0  0  0  0  0  0  0
    5.8243   -1.8826    0.0000 C   0  0  0  0  0  0  0  0  0  0  0  0
    4.5069   -1.1652    0.0000 C   0  0  0  0  0  0  0  0  0  0  0  0
    3.0367   -1.4624    0.0000 C   0  0  0  0  0  0  0  0  0  0  0  0
    3.3705    0.0000    0.0000 C   0  0  0  0  0  0  0  0  0  0  0  0
    3.0367    1.4624    0.0000 C   0  0  0  0  0  0  0  0  0  0  0  0
    2.1015    2.6351    0.0000 C   0  0  0  0  0  0  0  0  0  0  0  0
    0.7500    3.2860    0.0000 C   0  0  0  0  0  0  0  0  0  0  0  0
   -0.7500    3.2860    0.0000 C   0  0  0  0  0  0  0  0  0  0  0  0
   -2.1015    2.6351    0.0000 C   0  0  0  0  0  0  0  0  0  0  0  0
   -3.0367    1.4624    0.0000 C   0  0  0  0  0  0  0  0  0  0  0  0
   -3.3705    0.0000    0.0000 C   0  0  0  0  0  0  0  0  0  0  0  0
   -3.0367   -1.4624    0.0000 C   0  0  0  0  0  0  0  0  0  0  0  0
   -2.1015   -2.6351    0.0000 C   0  0  0  0  0  0  0  0  0  0  0  0
   -0.7500   -3.2860    0.0000 C   0  0  0  0  0  0  0  0  0  0  0  0
    0.7500   -3.2860    0.0000 C   0  0  0  0  0  0  0  0  0  0  0  0
    2.1015   -2.6351    0.0000 C   0  0  0  0  0  0  0  0  0  0  0  0
    2.1388   -4.1347    0.0000 O   0  0  0  0  0  0  0  0  0  0  0  0
    3.1314   -5.2593    0.0000 C   0  0  0  0  0  0  0  0  0  0  0  0
    4.6146   -5.4829    0.0000 C   0  0  0  0  0  0  0  0  0  0  0  0
    5.8946   -4.7008    0.0000 C   0  0  0  0  0  0  0  0  0  0  0  0
  1  2  1  0
  2  3  1  0
  3  4  2  0
  4  5  1  0
  5  6  2  0
  6  7  1  0
  7  8  2  0
  8  9  1  0
  9 10  2  0
 10 11  1  0
 11 12  2  0
 12 13  1  0
 13 14  2  0
 14 15  1  0
 15 16  1  0
 16 17  2  0
 17 18  1  0
 18 19  2  0
 19 20  1  0
 20 21  1  0
 21 22  1  0
 22 23  1  0
 23  3  1  0
 19  6  1  0
M  END
>  <Title>  (1334) 
idABZHgen8

$$$$

     RDKit          2D

 37 42  0  0  0  0  0  0  0  0999 V2000
    3.7500   -1.2990    0.0000 C   0  0  0  0  0  0  0  0  0  0  0  0
    3.0000    0.0000    0.0000 O   0  0  0  0  0  0  0  0  0  0  0  0
    1.5000    0.0000    0.0000 C   0  0  0  0  0  0  0  0  0  0  0  0
    0.7500   -1.2990    0.0000 C   0  0  0  0  0  0  0  0  0  0  0  0
   -0.7500   -1.2990    0.0000 C   0  0  0  0  0  0  0  0  0  0  0  0
   -1.5000    0.0000    0.0000 C   0  0  0  0  0  0  0  0  0  0  0  0
   -3.0000    0.0000    0.0000 C   0  0  0  0  0  0  0  0  0  0  0  0
   -3.8817   -1.2135    0.0000 N   0  0  0  0  0  0  0  0  0  0  0  0
   -5.3083   -0.7500    0.0000 N   0  0  0  0  0  0  0  0  0  0  0  0
   -5.3083    0.7500    0.0000 N   0  0  0  0  0  0  0  0  0  0  0  0
   -3.8817    1.2135    0.0000 N   0  0  0  0  0  0  0  0  0  0  0  0
   -3.4182    2.6401    0.0000 C   0  0  0  0  0  0  0  0  0  0  0  0
   -1.9509    2.9520    0.0000 C   0  0  0  0  0  0  0  0  0  0  0  0
   -1.4874    4.3786    0.0000 C   0  0  0  0  0  0  0  0  0  0  0  0
   -2.4911    5.4933    0.0000 C   0  0  0  0  0  0  0  0  0  0  0  0
   -2.0276    6.9199    0.0000 C   0  0  0  0  0  0  0  0  0  0  0  0
   -2.9093    8.1334    0.0000 N   0  0  0  0  0  0  0  0  0  0  0  0
   -2.0276    9.3469    0.0000 N   0  0  0  0  0  0  0  0  0  0  0  0
   -0.6010    8.8834    0.0000 N   0  0  0  0  0  0  0  0  0  0  0  0
   -0.6010    7.3834    0.0000 N   0  0  0  0  0  0  0  0  0  0  0  0
    0.6125    6.5017    0.0000 C   0  0  0  0  0  0  0  0  0  0  0  0
    0.4557    5.0099    0.0000 C   0  0  0  0  0  0  0  0  0  0  0  0
    1.6693    4.1283    0.0000 C   0  0  0  0  0  0  0  0  0  0  0  0
    3.0396    4.7384    0.0000 C   0  0  0  0  0  0  0  0  0  0  0  0
    3.1964    6.2301    0.0000 N   0  0  0  0  0  0  0  0  0  0  0  0
    1.9829    7.1118    0.0000 C   0  0  0  0  0  0  0  0  0  0  0  0
    2.1396    8.6036    0.0000 C   0  0  0  0  0  0  0  0  0  0  0  0
    3.5100    9.2137    0.0000 C   0  0  0  0  0  0  0  0  0  0  0  0
    3.6668   10.7055    0.0000 C   0  0  0  0  0  0  0  0  0  0  0  0
    2.4532   11.5872    0.0000 C   0  0  0  0  0  0  0  0  0  0  0  0
    1.0829   10.9771    0.0000 C   0  0  0  0  0  0  0  0  0  0  0  0
    0.9261    9.4853    0.0000 C   0  0  0  0  0  0  0  0  0  0  0  0
   -3.9583    5.1814    0.0000 C   0  0  0  0  0  0  0  0  0  0  0  0
   -4.4218    3.7548    0.0000 C   0  0  0  0  0  0  0  0  0  0  0  0
   -0.7500    1.2990    0.0000 C   0  0  0  0  0  0  0  0  0  0  0  0
    0.7500    1.2990    0.0000 C   0  0  0  0  0  0  0  0  0  0  0  0
    1.5000    2.5981    0.0000 C   0  0  0  0  0  0  0  0  0  0  0  0
  1  2  1  0
  2  3  1  0
  3  4  2  0
  4  5  1  0
  5  6  2  0
  6  7  1  0
  7  8  2  0
  8  9  1  0
  9 10  2  0
 10 11  1  0
 11 12  1  0
 12 13  2  0
 13 14  1  0
 14 15  2  0
 15 16  1  0
 16 17  2  0
 17 18  1  0
 18 19  2  0
 19 20  1  0
 20 21  1  0
 21 22  2  0
 22 23  1  0
 23 24  2  0
 24 25  1  0
 25 26  2  0
 26 27  1  0
 27 28  2  0
 28 29  1  0
 29 30  2  0
 30 31  1  0
 31 32  2  0
 15 33  1  0
 33 34  2  0
  6 35  1  0
 35 36  2  0
 36 37  1  0
 36  3  1  0
 11  7  1  0
 34 12  1  0
 20 16  1  0
 26 21  1  0
 32 27  1  0
M  END
>  <Title>  (1335) 
idABZIgen8

$$$$

     RDKit          2D

 47 54  0  0  0  0  0  0  0  0999 V2000
   -1.1442   -3.3246    0.0000 C   0  0  0  0  0  0  0  0  0  0  0  0
   -1.8942   -2.0256    0.0000 C   0  0  0  0  0  0  0  0  0  0  0  0
   -3.3431   -1.6374    0.0000 N   0  0  0  0  0  0  0  0  0  0  0  0
   -2.9549   -0.1885    0.0000 C   0  0  0  0  0  0  0  0  0  0  0  0
   -3.7049    1.1106    0.0000 C   0  0  0  0  0  0  0  0  0  0  0  0
   -5.1967    1.2674    0.0000 N   0  0  0  0  0  0  0  0  0  0  0  0
   -5.5085    2.7346    0.0000 N   0  0  0  0  0  0  0  0  0  0  0  0
   -4.2095    3.4846    0.0000 N   0  0  0  0  0  0  0  0  0  0  0  0
   -3.0948    2.4809    0.0000 N   0  0  0  0  0  0  0  0  0  0  0  0
   -1.6276    2.7928    0.0000 C   0  0  0  0  0  0  0  0  0  0  0  0
   -1.0175    4.1631    0.0000 C   0  0  0  0  0  0  0  0  0  0  0  0
    0.4743    4.0063    0.0000 C   0  0  0  0  0  0  0  0  0  0  0  0
    0.7862    2.5391    0.0000 C   0  0  0  0  0  0  0  0  0  0  0  0
    2.1565    1.9290    0.0000 C   0  0  0  0  0  0  0  0  0  0  0  0
    3.3700    2.8106    0.0000 O   0  0  0  0  0  0  0  0  0  0  0  0
    2.3133    0.4372    0.0000 N   0  0  0  0  0  0  0  0  0  0  0  0
    3.6836   -0.1729    0.0000 C   0  0  0  0  0  0  0  0  0  0  0  0
    4.9826    0.5771    0.0000 N   0  0  0  0  0  0  0  0  0  0  0  0
    6.0974   -0.4266    0.0000 N   0  0  0  0  0  0  0  0  0  0  0  0
    5.4873   -1.7969    0.0000 N   0  0  0  0  0  0  0  0  0  0  0  0
    3.9955   -1.6402    0.0000 N   0  0  0  0  0  0  0  0  0  0  0  0
    2.9918   -2.7549    0.0000 C   0  0  0  0  0  0  0  0  0  0  0  0
    1.5000   -2.5981    0.0000 N   0  0  0  0  0  0  0  0  0  0  0  0
    0.8899   -3.9684    0.0000 N   0  0  0  0  0  0  0  0  0  0  0  0
    2.0046   -4.9721    0.0000 N   0  0  0  0  0  0  0  0  0  0  0  0
    3.3037   -4.2221    0.0000 N   0  0  0  0  0  0  0  0  0  0  0  0
    4.6740   -4.8322    0.0000 C   0  0  0  0  0  0  0  0  0  0  0  0
    5.8875   -3.9505    0.0000 C   0  0  0  0  0  0  0  0  0  0  0  0
    7.2578   -4.5606    0.0000 C   0  0  0  0  0  0  0  0  0  0  0  0
    7.4146   -6.0524    0.0000 C   0  0  0  0  0  0  0  0  0  0  0  0
    8.7849   -6.6625    0.0000 C   0  0  0  0  0  0  0  0  0  0  0  0
    9.9984   -5.7808    0.0000 C   0  0  0  0  0  0  0  0  0  0  0  0
   11.3688   -6.3909    0.0000 C   0  0  0  0  0  0  0  0  0  0  0  0
   11.5256   -7.8827    0.0000 C   0  0  0  0  0  0  0  0  0  0  0  0
   10.3120   -8.7644    0.0000 C   0  0  0  0  0  0  0  0  0  0  0  0
    8.9417   -8.1543    0.0000 C   0  0  0  0  0  0  0  0  0  0  0  0
    6.2011   -6.9341    0.0000 C   0  0  0  0  0  0  0  0  0  0  0  0
    4.8308   -6.3240    0.0000 C   0  0  0  0  0  0  0  0  0  0  0  0
    3.6172   -7.2057    0.0000 C   0  0  0  0  0  0  0  0  0  0  0  0
    3.7740   -8.6974    0.0000 C   0  0  0  0  0  0  0  0  0  0  0  0
    2.5605   -9.5791    0.0000 C   0  0  0  0  0  0  0  0  0  0  0  0
    1.1902   -8.9690    0.0000 C   0  0  0  0  0  0  0  0  0  0  0  0
    1.0334   -7.4772    0.0000 C   0  0  0  0  0  0  0  0  0  0  0  0
    2.2469   -6.5956    0.0000 C   0  0  0  0  0  0  0  0  0  0  0  0
   -0.5129    1.7891    0.0000 C   0  0  0  0  0  0  0  0  0  0  0  0
   -0.6696    0.2973    0.0000 O   0  0  0  0  0  0  0  0  0  0  0  0
   -1.5060   -0.5767    0.0000 N   0  0  0  0  0  0  0  0  0  0  0  0
  1  2  1  0
  2  3  2  0
  3  4  1  0
  4  5  1  0
  5  6  2  0
  6  7  1  0
  7  8  2  0
  8  9  1  0
  9 10  1  0
 10 11  2  0
 11 12  1  0
 12 13  2  0
 13 14  1  0
 14 15  2  0
 14 16  1  0
 16 17  1  0
 17 18  2  0
 18 19  1  0
 19 20  2  0
 20 21  1  0
 21 22  1  0
 22 23  2  0
 23 24  1  0
 24 25  2  0
 25 26  1  0
 26 27  1  0
 27 28  2  0
 28 29  1  0
 29 30  2  0
 30 31  1  0
 31 32  2  0
 32 33  1  0
 33 34  2  0
 34 35  1  0
 35 36  2  0
 30 37  1  0
 37 38  2  0
 38 39  1  0
 39 40  2  0
 40 41  1  0
 41 42  2  0
 42 43  1  0
 43 44  2  0
 13 45  1  0
 45 46  2  0
  4 47  1  0
 47  2  1  0
  9  5  1  0
 45 10  1  0
 21 17  1  0
 26 22  1  0
 38 27  1  0
 44 39  1  0
 36 31  1  0
M  END
>  <Title>  (1336) 
idABZJgen8

$$$$

     RDKit          2D

 67 76  0  0  0  0  0  0  0  0999 V2000
    3.4598   -0.0000    0.0000 C   0  0  0  0  0  0  0  0  0  0  0  0
    1.9598    0.0000    0.0000 C   0  0  0  0  0  0  0  0  0  0  0  0
    1.3858   -1.3858    0.0000 C   0  0  0  0  0  0  0  0  0  0  0  0
   -0.0000   -1.9598    0.0000 C   0  0  0  0  0  0  0  0  0  0  0  0
   -1.3858   -1.3858    0.0000 C   0  0  0  0  0  0  0  0  0  0  0  0
   -1.9598    0.0000    0.0000 C   0  0  0  0  0  0  0  0  0  0  0  0
   -3.1920   -0.8555    0.0000 N   0  0  0  0  0  0  0  0  0  0  0  0
   -4.6910   -0.9090    0.0000 N   0  0  0  0  0  0  0  0  0  0  0  0
   -5.9810   -0.1436    0.0000 N   0  0  0  0  0  0  0  0  0  0  0  0
   -7.0789   -1.1657    0.0000 N   0  0  0  0  0  0  0  0  0  0  0  0
   -6.6525    1.1977    0.0000 C   0  0  0  0  0  0  0  0  0  0  0  0
   -8.1286    0.9314    0.0000 C   0  0  0  0  0  0  0  0  0  0  0  0
   -6.4921    2.6891    0.0000 C   0  0  0  0  0  0  0  0  0  0  0  0
   -5.5509    3.8571    0.0000 C   0  0  0  0  0  0  0  0  0  0  0  0
   -4.1277    4.3308    0.0000 C   0  0  0  0  0  0  0  0  0  0  0  0
   -4.1812    5.8298    0.0000 C   0  0  0  0  0  0  0  0  0  0  0  0
   -5.4254    6.6676    0.0000 N   0  0  0  0  0  0  0  0  0  0  0  0
   -5.0131    8.1099    0.0000 N   0  0  0  0  0  0  0  0  0  0  0  0
   -3.5141    8.1634    0.0000 N   0  0  0  0  0  0  0  0  0  0  0  0
   -2.9999    6.7543    0.0000 N   0  0  0  0  0  0  0  0  0  0  0  0
   -1.5577    6.3419    0.0000 C   0  0  0  0  0  0  0  0  0  0  0  0
   -0.3764    7.2664    0.0000 C   0  0  0  0  0  0  0  0  0  0  0  0
    0.8678    6.4286    0.0000 C   0  0  0  0  0  0  0  0  0  0  0  0
    0.4555    4.9864    0.0000 C   0  0  0  0  0  0  0  0  0  0  0  0
    1.3799    3.8051    0.0000 C   0  0  0  0  0  0  0  0  0  0  0  0
    0.9676    2.3629    0.0000 C   0  0  0  0  0  0  0  0  0  0  0  0
    2.2118    1.5251    0.0000 N   0  0  0  0  0  0  0  0  0  0  0  0
    3.3931    2.4495    0.0000 N   0  0  0  0  0  0  0  0  0  0  0  0
    2.8789    3.8586    0.0000 N   0  0  0  0  0  0  0  0  0  0  0  0
    3.7168    5.1028    0.0000 C   0  0  0  0  0  0  0  0  0  0  0  0
    2.9593    6.3975    0.0000 C   0  0  0  0  0  0  0  0  0  0  0  0
    3.4992    7.7970    0.0000 C   0  0  0  0  0  0  0  0  0  0  0  0
    4.9300    8.2474    0.0000 C   0  0  0  0  0  0  0  0  0  0  0  0
    5.1450    9.7319    0.0000 C   0  0  0  0  0  0  0  0  0  0  0  0
    4.0703   10.7784    0.0000 N   0  0  0  0  0  0  0  0  0  0  0  0
    4.7335   12.1238    0.0000 N   0  0  0  0  0  0  0  0  0  0  0  0
    6.2180   11.9088    0.0000 N   0  0  0  0  0  0  0  0  0  0  0  0
    6.4723   10.4305    0.0000 N   0  0  0  0  0  0  0  0  0  0  0  0
    7.8177    9.7673    0.0000 C   0  0  0  0  0  0  0  0  0  0  0  0
    7.9161    8.2706    0.0000 C   0  0  0  0  0  0  0  0  0  0  0  0
    9.2615    7.6074    0.0000 C   0  0  0  0  0  0  0  0  0  0  0  0
   10.5086    8.4409    0.0000 C   0  0  0  0  0  0  0  0  0  0  0  0
   10.4102    9.9377    0.0000 C   0  0  0  0  0  0  0  0  0  0  0  0
    9.0648   10.6009    0.0000 C   0  0  0  0  0  0  0  0  0  0  0  0
    6.1742    7.4096    0.0000 C   0  0  0  0  0  0  0  0  0  0  0  0
    7.2236    7.7170    0.0000 O   0  0  0  0  0  0  0  0  0  0  0  0
    6.2949    5.9144    0.0000 N   0  0  0  0  0  0  0  0  0  0  0  0
    5.2013    4.8878    0.0000 C   0  0  0  0  0  0  0  0  0  0  0  0
    5.6517    3.4571    0.0000 O   0  0  0  0  0  0  0  0  0  0  0  0
   -1.0436    4.9328    0.0000 C   0  0  0  0  0  0  0  0  0  0  0  0
   -1.8814    3.6886    0.0000 O   0  0  0  0  0  0  0  0  0  0  0  0
   -2.6743    3.9598    0.0000 C   0  0  0  0  0  0  0  0  0  0  0  0
   -2.2346    5.3939    0.0000 C   0  0  0  0  0  0  0  0  0  0  0  0
   -0.7728    5.7302    0.0000 C   0  0  0  0  0  0  0  0  0  0  0  0
    0.2494    4.6324    0.0000 C   0  0  0  0  0  0  0  0  0  0  0  0
    1.7112    4.9686    0.0000 C   0  0  0  0  0  0  0  0  0  0  0  0
    2.1509    6.4027    0.0000 C   0  0  0  0  0  0  0  0  0  0  0  0
    3.6127    6.7390    0.0000 C   0  0  0  0  0  0  0  0  0  0  0  0
    4.0524    8.1731    0.0000 C   0  0  0  0  0  0  0  0  0  0  0  0
    3.0303    9.2710    0.0000 C   0  0  0  0  0  0  0  0  0  0  0  0
    1.5685    8.9347    0.0000 C   0  0  0  0  0  0  0  0  0  0  0  0
    1.1288    7.5006    0.0000 C   0  0  0  0  0  0  0  0  0  0  0  0
   -0.1903    3.1983    0.0000 C   0  0  0  0  0  0  0  0  0  0  0  0
   -1.6521    2.8620    0.0000 C   0  0  0  0  0  0  0  0  0  0  0  0
   -1.3858    1.3858    0.0000 C   0  0  0  0  0  0  0  0  0  0  0  0
    0.0000    1.9598    0.0000 C   0  0  0  0  0  0  0  0  0  0  0  0
    1.3858    1.3858    0.0000 C   0  0  0  0  0  0  0  0  0  0  0  0
  1  2  1  0
  2  3  1  0
  3  4  2  0
  4  5  1  0
  5  6  2  0
  6  7  1  0
  7  8  2  0
  8  9  1  0
  9 10  1  0
  9 11  1  0
 11 12  1  0
 11 13  2  0
 13 14  1  0
 14 15  2  0
 15 16  1  0
 16 17  2  0
 17 18  1  0
 18 19  2  0
 19 20  1  0
 20 21  1  0
 21 22  2  0
 22 23  1  0
 23 24  2  0
 24 25  1  0
 25 26  2  0
 26 27  1  0
 27 28  2  0
 28 29  1  0
 29 30  1  0
 30 31  2  0
 31 32  1  0
 32 33  2  0
 33 34  1  0
 34 35  2  0
 35 36  1  0
 36 37  2  0
 37 38  1  0
 38 39  1  0
 39 40  2  0
 40 41  1  0
 41 42  2  0
 42 43  1  0
 43 44  2  0
 33 45  1  0
 45 46  2  0
 45 47  1  0
 47 48  1  0
 48 49  2  0
 24 50  1  0
 50 51  2  0
 15 52  1  0
 52 53  2  0
 53 54  1  0
 54 55  2  0
 55 56  1  0
 56 57  1  0
 57 58  2  0
 58 59  1  0
 59 60  2  0
 60 61  1  0
 61 62  2  0
 55 63  1  0
 63 64  2  0
 64 65  1  0
 65 66  2  0
 66 67  1  0
 67  2  2  0
 65  6  1  0
 20 16  1  0
 50 21  1  0
 64 52  1  0
 29 25  1  0
 48 30  1  0
 62 57  1  0
 38 34  1  0
 44 39  1  0
M  END
>  <Title>  (1337) 
idABZKgen8

$$$$

     RDKit          2D

  8  8  0  0  0  0  0  0  0  0999 V2000
    3.0000    0.0000    0.0000 C   0  0  0  0  0  0  0  0  0  0  0  0
    1.5000    0.0000    0.0000 C   0  0  0  0  0  0  0  0  0  0  0  0
    0.7500   -1.2990    0.0000 C   0  0  0  0  0  0  0  0  0  0  0  0
   -0.7500   -1.2990    0.0000 C   0  0  0  0  0  0  0  0  0  0  0  0
   -1.5000    0.0000    0.0000 C   0  0  0  0  0  0  0  0  0  0  0  0
   -0.7500    1.2990    0.0000 C   0  0  0  0  0  0  0  0  0  0  0  0
    0.7500    1.2990    0.0000 C   0  0  0  0  0  0  0  0  0  0  0  0
    1.5000    2.5981    0.0000 C   0  0  0  0  0  0  0  0  0  0  0  0
  1  2  1  0
  2  3  2  0
  3  4  1  0
  4  5  2  0
  5  6  1  0
  6  7  2  0
  7  8  1  0
  7  2  1  0
M  END
>  <Title>  (1338) 
idABZLgen8

$$$$

     RDKit          2D

 36 41  0  0  0  0  0  0  0  0999 V2000
    3.0000    0.0000    0.0000 C   0  0  0  0  0  0  0  0  0  0  0  0
    1.5000    0.0000    0.0000 C   0  0  0  0  0  0  0  0  0  0  0  0
    0.7500   -1.2990    0.0000 C   0  0  0  0  0  0  0  0  0  0  0  0
   -0.7500   -1.2990    0.0000 C   0  0  0  0  0  0  0  0  0  0  0  0
   -1.5000    0.0000    0.0000 C   0  0  0  0  0  0  0  0  0  0  0  0
   -3.0000    0.0000    0.0000 C   0  0  0  0  0  0  0  0  0  0  0  0
   -3.8817   -1.2135    0.0000 N   0  0  0  0  0  0  0  0  0  0  0  0
   -5.3083   -0.7500    0.0000 N   0  0  0  0  0  0  0  0  0  0  0  0
   -5.3083    0.7500    0.0000 N   0  0  0  0  0  0  0  0  0  0  0  0
   -3.8817    1.2135    0.0000 N   0  0  0  0  0  0  0  0  0  0  0  0
   -3.4182    2.6401    0.0000 C   0  0  0  0  0  0  0  0  0  0  0  0
   -1.9509    2.9520    0.0000 C   0  0  0  0  0  0  0  0  0  0  0  0
   -1.4874    4.3786    0.0000 C   0  0  0  0  0  0  0  0  0  0  0  0
   -2.4911    5.4933    0.0000 C   0  0  0  0  0  0  0  0  0  0  0  0
   -3.9583    5.1814    0.0000 N   0  0  0  0  0  0  0  0  0  0  0  0
   -4.4218    3.7548    0.0000 N   0  0  0  0  0  0  0  0  0  0  0  0
   -5.8891    3.4430    0.0000 C   0  0  0  0  0  0  0  0  0  0  0  0
   -6.4992    2.0726    0.0000 N   0  0  0  0  0  0  0  0  0  0  0  0
   -7.9910    2.2294    0.0000 N   0  0  0  0  0  0  0  0  0  0  0  0
   -8.3028    3.6967    0.0000 N   0  0  0  0  0  0  0  0  0  0  0  0
   -7.0038    4.4467    0.0000 N   0  0  0  0  0  0  0  0  0  0  0  0
   -6.8470    5.9384    0.0000 C   0  0  0  0  0  0  0  0  0  0  0  0
   -7.9617    6.9421    0.0000 C   0  0  0  0  0  0  0  0  0  0  0  0
   -7.3516    8.3125    0.0000 C   0  0  0  0  0  0  0  0  0  0  0  0
   -5.8598    8.1557    0.0000 C   0  0  0  0  0  0  0  0  0  0  0  0
   -4.8561    9.2704    0.0000 C   0  0  0  0  0  0  0  0  0  0  0  0
   -3.3889    8.9585    0.0000 C   0  0  0  0  0  0  0  0  0  0  0  0
   -2.3852   10.0732    0.0000 N   0  0  0  0  0  0  0  0  0  0  0  0
   -2.8487   11.4998    0.0000 N   0  0  0  0  0  0  0  0  0  0  0  0
   -4.3160   11.8117    0.0000 N   0  0  0  0  0  0  0  0  0  0  0  0
   -5.3197   10.6970    0.0000 N   0  0  0  0  0  0  0  0  0  0  0  0
   -5.5480    6.6884    0.0000 C   0  0  0  0  0  0  0  0  0  0  0  0
   -4.1776    6.0783    0.0000 O   0  0  0  0  0  0  0  0  0  0  0  0
   -0.7500    1.2990    0.0000 N   0  0  0  0  0  0  0  0  0  0  0  0
    0.7500    1.2990    0.0000 C   0  0  0  0  0  0  0  0  0  0  0  0
    1.5000    2.5981    0.0000 O   0  0  0  0  0  0  0  0  0  0  0  0
  1  2  1  0
  2  3  2  0
  3  4  1  0
  4  5  2  0
  5  6  1  0
  6  7  2  0
  7  8  1  0
  8  9  2  0
  9 10  1  0
 10 11  1  0
 11 12  1  0
 12 13  1  0
 13 14  1  0
 14 15  2  0
 15 16  1  0
 16 17  1  0
 17 18  2  0
 18 19  1  0
 19 20  2  0
 20 21  1  0
 21 22  1  0
 22 23  2  0
 23 24  1  0
 24 25  2  0
 25 26  1  0
 26 27  2  0
 27 28  1  0
 28 29  2  0
 29 30  1  0
 30 31  2  0
 25 32  1  0
 32 33  2  0
  5 34  1  0
 34 35  1  0
 35 36  2  0
 35  2  1  0
 10  6  1  0
 16 11  1  0
 21 17  1  0
 32 22  1  0
 31 26  1  0
M  END
>  <Title>  (1339) 
idABZMgen8

$$$$

     RDKit          2D

 34 38  0  0  0  0  0  0  0  0999 V2000
    3.7500   -1.2990    0.0000 C   0  0  0  0  0  0  0  0  0  0  0  0
    3.0000    0.0000    0.0000 O   0  0  0  0  0  0  0  0  0  0  0  0
    1.5000    0.0000    0.0000 C   0  0  0  0  0  0  0  0  0  0  0  0
    0.7500   -1.2990    0.0000 C   0  0  0  0  0  0  0  0  0  0  0  0
   -0.7500   -1.2990    0.0000 C   0  0  0  0  0  0  0  0  0  0  0  0
   -1.5000    0.0000    0.0000 C   0  0  0  0  0  0  0  0  0  0  0  0
   -3.0000    0.0000    0.0000 C   0  0  0  0  0  0  0  0  0  0  0  0
   -3.7500   -1.2990    0.0000 O   0  0  0  0  0  0  0  0  0  0  0  0
   -3.7500    1.2990    0.0000 N   0  0  0  0  0  0  0  0  0  0  0  0
   -5.2500    1.2990    0.0000 C   0  0  0  0  0  0  0  0  0  0  0  0
   -6.1317    0.0855    0.0000 N   0  0  0  0  0  0  0  0  0  0  0  0
   -7.5583    0.5490    0.0000 N   0  0  0  0  0  0  0  0  0  0  0  0
   -7.5583    2.0490    0.0000 N   0  0  0  0  0  0  0  0  0  0  0  0
   -6.1317    2.5126    0.0000 N   0  0  0  0  0  0  0  0  0  0  0  0
   -5.6682    3.9391    0.0000 C   0  0  0  0  0  0  0  0  0  0  0  0
   -6.5498    5.1527    0.0000 C   0  0  0  0  0  0  0  0  0  0  0  0
   -5.6682    6.3662    0.0000 C   0  0  0  0  0  0  0  0  0  0  0  0
   -4.2416    5.9027    0.0000 C   0  0  0  0  0  0  0  0  0  0  0  0
   -3.0280    6.7844    0.0000 C   0  0  0  0  0  0  0  0  0  0  0  0
   -3.0280    8.2844    0.0000 N   0  0  0  0  0  0  0  0  0  0  0  0
   -1.6015    8.7479    0.0000 N   0  0  0  0  0  0  0  0  0  0  0  0
   -0.7198    7.5344    0.0000 N   0  0  0  0  0  0  0  0  0  0  0  0
   -1.6015    6.3208    0.0000 N   0  0  0  0  0  0  0  0  0  0  0  0
   -1.1379    4.8942    0.0000 C   0  0  0  0  0  0  0  0  0  0  0  0
   -2.1416    3.7795    0.0000 C   0  0  0  0  0  0  0  0  0  0  0  0
   -1.6781    2.3529    0.0000 C   0  0  0  0  0  0  0  0  0  0  0  0
   -0.2109    2.0411    0.0000 C   0  0  0  0  0  0  0  0  0  0  0  0
    0.7928    3.1558    0.0000 C   0  0  0  0  0  0  0  0  0  0  0  0
    0.3293    4.5824    0.0000 C   0  0  0  0  0  0  0  0  0  0  0  0
   -4.2416    4.4027    0.0000 C   0  0  0  0  0  0  0  0  0  0  0  0
   -3.0280    3.5210    0.0000 O   0  0  0  0  0  0  0  0  0  0  0  0
   -0.7500    1.2990    0.0000 N   0  0  0  0  0  0  0  0  0  0  0  0
    0.7500    1.2990    0.0000 C   0  0  0  0  0  0  0  0  0  0  0  0
    1.5000    2.5981    0.0000 O   0  0  0  0  0  0  0  0  0  0  0  0
  1  2  1  0
  2  3  1  0
  3  4  2  0
  4  5  1  0
  5  6  2  0
  6  7  1  0
  7  8  2  0
  7  9  1  0
  9 10  1  0
 10 11  2  0
 11 12  1  0
 12 13  2  0
 13 14  1  0
 14 15  1  0
 15 16  2  0
 16 17  1  0
 17 18  2  0
 18 19  1  0
 19 20  2  0
 20 21  1  0
 21 22  2  0
 22 23  1  0
 23 24  1  0
 24 25  2  0
 25 26  1  0
 26 27  2  0
 27 28  1  0
 28 29  2  0
 18 30  1  0
 30 31  2  0
  6 32  1  0
 32 33  1  0
 33 34  2  0
 33  3  1  0
 14 10  1  0
 30 15  1  0
 23 19  1  0
 29 24  1  0
M  END
>  <Title>  (1340) 
idABZNgen8

$$$$

     RDKit          2D

 14 14  0  0  0  0  0  0  0  0999 V2000
    4.3978    0.0000    0.0000 C   0  0  0  0  0  0  0  0  0  0  0  0
    2.8978    0.0000    0.0000 C   0  0  0  0  0  0  0  0  0  0  0  0
    2.5095   -1.4489    0.0000 C   0  0  0  0  0  0  0  0  0  0  0  0
    1.4489   -2.5095    0.0000 C   0  0  0  0  0  0  0  0  0  0  0  0
   -0.0000   -2.8978    0.0000 C   0  0  0  0  0  0  0  0  0  0  0  0
   -1.4489   -2.5095    0.0000 C   0  0  0  0  0  0  0  0  0  0  0  0
   -2.5095   -1.4489    0.0000 C   0  0  0  0  0  0  0  0  0  0  0  0
   -2.8978    0.0000    0.0000 C   0  0  0  0  0  0  0  0  0  0  0  0
   -2.5095    1.4489    0.0000 C   0  0  0  0  0  0  0  0  0  0  0  0
   -1.4489    2.5095    0.0000 C   0  0  0  0  0  0  0  0  0  0  0  0
    0.0000    2.8978    0.0000 C   0  0  0  0  0  0  0  0  0  0  0  0
    1.4489    2.5095    0.0000 C   0  0  0  0  0  0  0  0  0  0  0  0
    2.5095    1.4489    0.0000 C   0  0  0  0  0  0  0  0  0  0  0  0
    3.8086    2.1989    0.0000 N   0  0  0  0  0  0  0  0  0  0  0  0
  1  2  1  0
  2  3  2  0
  3  4  1  0
  4  5  2  0
  5  6  2  0
  6  7  2  0
  7  8  1  0
  8  9  2  0
  9 10  1  0
 10 11  2  0
 11 12  1  0
 12 13  2  0
 13 14  1  0
 13  2  1  0
M  END
>  <Title>  (1341) 
idABZOgen8

$$$$

     RDKit          2D

 46 52  0  0  0  0  0  0  0  0999 V2000
    0.8311   10.2038    0.0000 C   0  0  0  0  0  0  0  0  0  0  0  0
   -0.5392    9.5937    0.0000 C   0  0  0  0  0  0  0  0  0  0  0  0
   -1.7527   10.4753    0.0000 C   0  0  0  0  0  0  0  0  0  0  0  0
   -3.1230    9.8652    0.0000 C   0  0  0  0  0  0  0  0  0  0  0  0
   -3.2798    8.3735    0.0000 C   0  0  0  0  0  0  0  0  0  0  0  0
   -4.6502    7.7634    0.0000 C   0  0  0  0  0  0  0  0  0  0  0  0
   -5.9492    8.5134    0.0000 N   0  0  0  0  0  0  0  0  0  0  0  0
   -7.0639    7.5097    0.0000 N   0  0  0  0  0  0  0  0  0  0  0  0
   -6.4538    6.1393    0.0000 N   0  0  0  0  0  0  0  0  0  0  0  0
   -4.9620    6.2961    0.0000 N   0  0  0  0  0  0  0  0  0  0  0  0
   -3.9583    5.1814    0.0000 C   0  0  0  0  0  0  0  0  0  0  0  0
   -2.4911    5.4933    0.0000 N   0  0  0  0  0  0  0  0  0  0  0  0
   -1.4874    4.3786    0.0000 N   0  0  0  0  0  0  0  0  0  0  0  0
   -1.9509    2.9520    0.0000 N   0  0  0  0  0  0  0  0  0  0  0  0
   -3.4182    2.6401    0.0000 N   0  0  0  0  0  0  0  0  0  0  0  0
   -4.4218    3.7548    0.0000 N   0  0  0  0  0  0  0  0  0  0  0  0
   -5.8891    3.4430    0.0000 C   0  0  0  0  0  0  0  0  0  0  0  0
   -6.8928    4.5577    0.0000 C   0  0  0  0  0  0  0  0  0  0  0  0
   -8.3600    4.2458    0.0000 C   0  0  0  0  0  0  0  0  0  0  0  0
   -8.8235    2.8192    0.0000 C   0  0  0  0  0  0  0  0  0  0  0  0
  -10.2907    2.5074    0.0000 C   0  0  0  0  0  0  0  0  0  0  0  0
  -10.7543    1.0808    0.0000 O   0  0  0  0  0  0  0  0  0  0  0  0
  -11.2944    3.6221    0.0000 N   0  0  0  0  0  0  0  0  0  0  0  0
  -12.7617    3.3102    0.0000 C   0  0  0  0  0  0  0  0  0  0  0  0
  -13.3718    1.9399    0.0000 N   0  0  0  0  0  0  0  0  0  0  0  0
  -14.8635    2.0967    0.0000 N   0  0  0  0  0  0  0  0  0  0  0  0
  -15.1754    3.5639    0.0000 N   0  0  0  0  0  0  0  0  0  0  0  0
  -13.8764    4.3139    0.0000 N   0  0  0  0  0  0  0  0  0  0  0  0
  -13.7196    5.8057    0.0000 C   0  0  0  0  0  0  0  0  0  0  0  0
  -12.3493    6.4158    0.0000 C   0  0  0  0  0  0  0  0  0  0  0  0
  -12.1925    7.9076    0.0000 C   0  0  0  0  0  0  0  0  0  0  0  0
  -13.4060    8.7893    0.0000 C   0  0  0  0  0  0  0  0  0  0  0  0
  -14.7763    8.1791    0.0000 C   0  0  0  0  0  0  0  0  0  0  0  0
  -14.9331    6.6874    0.0000 C   0  0  0  0  0  0  0  0  0  0  0  0
   -7.8198    1.7045    0.0000 C   0  0  0  0  0  0  0  0  0  0  0  0
   -6.3526    2.0164    0.0000 C   0  0  0  0  0  0  0  0  0  0  0  0
   -5.3489    0.9017    0.0000 C   0  0  0  0  0  0  0  0  0  0  0  0
   -5.8124   -0.5249    0.0000 C   0  0  0  0  0  0  0  0  0  0  0  0
   -4.8087   -1.6396    0.0000 C   0  0  0  0  0  0  0  0  0  0  0  0
   -3.3415   -1.3278    0.0000 C   0  0  0  0  0  0  0  0  0  0  0  0
   -2.3378   -2.4425    0.0000 C   0  0  0  0  0  0  0  0  0  0  0  0
   -2.8780    0.0988    0.0000 C   0  0  0  0  0  0  0  0  0  0  0  0
   -1.4108    0.4107    0.0000 O   0  0  0  0  0  0  0  0  0  0  0  0
   -3.8817    1.2135    0.0000 N   0  0  0  0  0  0  0  0  0  0  0  0
   -2.0663    7.4918    0.0000 N   0  0  0  0  0  0  0  0  0  0  0  0
   -0.6960    8.1019    0.0000 N   0  0  0  0  0  0  0  0  0  0  0  0
  1  2  1  0
  2  3  2  0
  3  4  1  0
  4  5  2  0
  5  6  1  0
  6  7  2  0
  7  8  1  0
  8  9  2  0
  9 10  1  0
 10 11  1  0
 11 12  1  0
 12 13  1  0
 13 14  1  0
 14 15  2  0
 15 16  1  0
 16 17  1  0
 17 18  2  0
 18 19  1  0
 19 20  2  0
 20 21  1  0
 21 22  2  0
 21 23  1  0
 23 24  1  0
 24 25  2  0
 25 26  1  0
 26 27  2  0
 27 28  1  0
 28 29  1  0
 29 30  2  0
 30 31  1  0
 31 32  2  0
 32 33  1  0
 33 34  2  0
 20 35  1  0
 35 36  2  0
 36 37  1  0
 37 38  2  0
 38 39  1  0
 39 40  2  0
 40 41  1  0
 40 42  1  0
 42 43  2  0
 42 44  1  0
  5 45  1  0
 45 46  2  0
 46  2  1  0
 10  6  1  0
 16 11  1  0
 36 17  1  0
 44 37  1  0
 28 24  1  0
 34 29  1  0
M  END
>  <Title>  (1342) 
idABZPgen8

$$$$

     RDKit          2D

 61 68  0  0  0  0  0  0  0  0999 V2000
  -24.0000   15.5885    0.0000 C   0  0  0  0  0  0  0  0  0  0  0  0
  -23.2500   14.2894    0.0000 C   0  0  0  0  0  0  0  0  0  0  0  0
  -24.0000   12.9904    0.0000 C   0  0  0  0  0  0  0  0  0  0  0  0
  -23.2500   11.6913    0.0000 C   0  0  0  0  0  0  0  0  0  0  0  0
  -21.7500   11.6913    0.0000 C   0  0  0  0  0  0  0  0  0  0  0  0
  -21.0000   10.3923    0.0000 C   0  0  0  0  0  0  0  0  0  0  0  0
  -19.5000   10.3923    0.0000 C   0  0  0  0  0  0  0  0  0  0  0  0
  -18.7500    9.0933    0.0000 C   0  0  0  0  0  0  0  0  0  0  0  0
  -17.2500    9.0933    0.0000 C   0  0  0  0  0  0  0  0  0  0  0  0
  -16.5000    7.7942    0.0000 C   0  0  0  0  0  0  0  0  0  0  0  0
  -15.0000    7.7942    0.0000 C   0  0  0  0  0  0  0  0  0  0  0  0
  -14.2500    6.4952    0.0000 C   0  0  0  0  0  0  0  0  0  0  0  0
  -12.7500    6.4952    0.0000 C   0  0  0  0  0  0  0  0  0  0  0  0
  -12.0000    7.7942    0.0000 N   0  0  0  0  0  0  0  0  0  0  0  0
  -10.5000    7.7942    0.0000 N   0  0  0  0  0  0  0  0  0  0  0  0
   -9.7500    6.4952    0.0000 N   0  0  0  0  0  0  0  0  0  0  0  0
  -10.5000    5.1962    0.0000 N   0  0  0  0  0  0  0  0  0  0  0  0
  -12.0000    5.1962    0.0000 N   0  0  0  0  0  0  0  0  0  0  0  0
  -12.7500    3.8971    0.0000 C   0  0  0  0  0  0  0  0  0  0  0  0
  -14.2500    3.8971    0.0000 C   0  0  0  0  0  0  0  0  0  0  0  0
  -15.0000    2.5981    0.0000 C   0  0  0  0  0  0  0  0  0  0  0  0
  -14.2500    1.2990    0.0000 C   0  0  0  0  0  0  0  0  0  0  0  0
  -15.0000    0.0000    0.0000 C   0  0  0  0  0  0  0  0  0  0  0  0
  -14.2500   -1.2990    0.0000 O   0  0  0  0  0  0  0  0  0  0  0  0
  -16.5000    0.0000    0.0000 N   0  0  0  0  0  0  0  0  0  0  0  0
  -17.2500   -1.2990    0.0000 C   0  0  0  0  0  0  0  0  0  0  0  0
  -16.6399   -2.6694    0.0000 N   0  0  0  0  0  0  0  0  0  0  0  0
  -17.7546   -3.6731    0.0000 N   0  0  0  0  0  0  0  0  0  0  0  0
  -19.0537   -2.9231    0.0000 N   0  0  0  0  0  0  0  0  0  0  0  0
  -18.7418   -1.4558    0.0000 N   0  0  0  0  0  0  0  0  0  0  0  0
  -19.7455   -0.3411    0.0000 C   0  0  0  0  0  0  0  0  0  0  0  0
  -21.2373   -0.4979    0.0000 C   0  0  0  0  0  0  0  0  0  0  0  0
  -21.8474    0.8724    0.0000 C   0  0  0  0  0  0  0  0  0  0  0  0
  -20.7326    1.8761    0.0000 C   0  0  0  0  0  0  0  0  0  0  0  0
  -20.8894    3.3679    0.0000 C   0  0  0  0  0  0  0  0  0  0  0  0
  -22.1885    4.1179    0.0000 N   0  0  0  0  0  0  0  0  0  0  0  0
  -21.8766    5.5851    0.0000 N   0  0  0  0  0  0  0  0  0  0  0  0
  -20.3848    5.7419    0.0000 N   0  0  0  0  0  0  0  0  0  0  0  0
  -19.7747    4.3716    0.0000 N   0  0  0  0  0  0  0  0  0  0  0  0
  -18.3075    4.0597    0.0000 C   0  0  0  0  0  0  0  0  0  0  0  0
  -17.8440    2.6331    0.0000 C   0  0  0  0  0  0  0  0  0  0  0  0
  -16.3768    2.3213    0.0000 C   0  0  0  0  0  0  0  0  0  0  0  0
  -15.3731    3.4360    0.0000 C   0  0  0  0  0  0  0  0  0  0  0  0
  -15.8366    4.8626    0.0000 C   0  0  0  0  0  0  0  0  0  0  0  0
  -17.3038    5.1744    0.0000 C   0  0  0  0  0  0  0  0  0  0  0  0
  -19.4336    1.1261    0.0000 C   0  0  0  0  0  0  0  0  0  0  0  0
  -18.0633    1.7362    0.0000 O   0  0  0  0  0  0  0  0  0  0  0  0
  -12.7500    1.2990    0.0000 C   0  0  0  0  0  0  0  0  0  0  0  0
  -12.0000    2.5981    0.0000 C   0  0  0  0  0  0  0  0  0  0  0  0
  -10.5000    2.5981    0.0000 C   0  0  0  0  0  0  0  0  0  0  0  0
   -9.7500    1.2990    0.0000 C   0  0  0  0  0  0  0  0  0  0  0  0
   -8.2500    1.2990    0.0000 C   0  0  0  0  0  0  0  0  0  0  0  0
   -7.5000    2.5981    0.0000 C   0  0  0  0  0  0  0  0  0  0  0  0
   -6.0000    2.5981    0.0000 C   0  0  0  0  0  0  0  0  0  0  0  0
   -5.2500    1.2990    0.0000 O   0  0  0  0  0  0  0  0  0  0  0  0
   -5.2500    3.8971    0.0000 N   0  0  0  0  0  0  0  0  0  0  0  0
   -3.7500    3.8971    0.0000 O   0  0  0  0  0  0  0  0  0  0  0  0
   -8.2500    3.8971    0.0000 C   0  0  0  0  0  0  0  0  0  0  0  0
   -9.7500    3.8971    0.0000 C   0  0  0  0  0  0  0  0  0  0  0  0
  -21.0000   12.9904    0.0000 C   0  0  0  0  0  0  0  0  0  0  0  0
  -21.7500   14.2894    0.0000 C   0  0  0  0  0  0  0  0  0  0  0  0
  1  2  1  0
  2  3  2  0
  3  4  1  0
  4  5  2  0
  5  6  1  0
  6  7  2  3
  7  8  1  0
  8  9  2  3
  9 10  1  0
 10 11  2  3
 11 12  1  0
 12 13  2  3
 13 14  1  0
 14 15  2  0
 15 16  1  0
 16 17  2  0
 17 18  1  0
 18 19  1  0
 19 20  2  0
 20 21  1  0
 21 22  2  0
 22 23  1  0
 23 24  2  0
 23 25  1  0
 25 26  1  0
 26 27  2  0
 27 28  1  0
 28 29  2  0
 29 30  1  0
 30 31  1  0
 31 32  2  0
 32 33  1  0
 33 34  2  0
 34 35  1  0
 35 36  2  0
 36 37  1  0
 37 38  2  0
 38 39  1  0
 39 40  1  0
 40 41  2  0
 41 42  1  0
 42 43  2  0
 43 44  1  0
 44 45  2  0
 34 46  1  0
 46 47  2  0
 22 48  1  0
 48 49  2  0
 49 50  1  0
 50 51  2  0
 51 52  1  0
 52 53  2  0
 53 54  1  0
 54 55  2  0
 54 56  1  0
 56 57  1  0
 53 58  1  0
 58 59  1  0
  5 60  1  0
 60 61  1  0
 61  2  1  0
 18 13  1  0
 49 19  1  0
 59 50  1  0
 30 26  1  0
 46 31  1  0
 39 35  1  0
 45 40  1  0
M  END
>  <Title>  (1343) 
idABZQgen8

$$$$

     RDKit          2D

 63 72  0  0  0  0  0  0  0  0999 V2000
    0.8311   10.2038    0.0000 C   0  0  0  0  0  0  0  0  0  0  0  0
   -0.5392    9.5937    0.0000 C   0  0  0  0  0  0  0  0  0  0  0  0
   -1.7527   10.4753    0.0000 C   0  0  0  0  0  0  0  0  0  0  0  0
   -3.1230    9.8652    0.0000 C   0  0  0  0  0  0  0  0  0  0  0  0
   -3.2798    8.3735    0.0000 C   0  0  0  0  0  0  0  0  0  0  0  0
   -4.6502    7.7634    0.0000 C   0  0  0  0  0  0  0  0  0  0  0  0
   -5.9492    8.5134    0.0000 N   0  0  0  0  0  0  0  0  0  0  0  0
   -7.0639    7.5097    0.0000 N   0  0  0  0  0  0  0  0  0  0  0  0
   -6.4538    6.1393    0.0000 N   0  0  0  0  0  0  0  0  0  0  0  0
   -4.9620    6.2961    0.0000 N   0  0  0  0  0  0  0  0  0  0  0  0
   -3.9583    5.1814    0.0000 C   0  0  0  0  0  0  0  0  0  0  0  0
   -2.4911    5.4933    0.0000 C   0  0  0  0  0  0  0  0  0  0  0  0
   -1.4874    4.3786    0.0000 C   0  0  0  0  0  0  0  0  0  0  0  0
   -1.9509    2.9520    0.0000 C   0  0  0  0  0  0  0  0  0  0  0  0
   -0.9472    1.8373    0.0000 C   0  0  0  0  0  0  0  0  0  0  0  0
   -1.4108    0.4107    0.0000 C   0  0  0  0  0  0  0  0  0  0  0  0
   -0.4071   -0.7040    0.0000 C   0  0  0  0  0  0  0  0  0  0  0  0
    1.0602   -0.3922    0.0000 N   0  0  0  0  0  0  0  0  0  0  0  0
    1.5237    1.0344    0.0000 N   0  0  0  0  0  0  0  0  0  0  0  0
    0.5200    2.1491    0.0000 C   0  0  0  0  0  0  0  0  0  0  0  0
    0.9835    3.5757    0.0000 C   0  0  0  0  0  0  0  0  0  0  0  0
    2.4507    3.8876    0.0000 C   0  0  0  0  0  0  0  0  0  0  0  0
    2.9143    5.3142    0.0000 C   0  0  0  0  0  0  0  0  0  0  0  0
    1.9106    6.4289    0.0000 C   0  0  0  0  0  0  0  0  0  0  0  0
    0.4433    6.1170    0.0000 C   0  0  0  0  0  0  0  0  0  0  0  0
   -0.0202    4.6904    0.0000 C   0  0  0  0  0  0  0  0  0  0  0  0
   -3.4182    2.6401    0.0000 C   0  0  0  0  0  0  0  0  0  0  0  0
   -4.4218    3.7548    0.0000 C   0  0  0  0  0  0  0  0  0  0  0  0
   -5.8891    3.4430    0.0000 C   0  0  0  0  0  0  0  0  0  0  0  0
   -6.8928    4.5577    0.0000 C   0  0  0  0  0  0  0  0  0  0  0  0
   -8.3600    4.2458    0.0000 C   0  0  0  0  0  0  0  0  0  0  0  0
   -8.8235    2.8192    0.0000 C   0  0  0  0  0  0  0  0  0  0  0  0
  -10.2907    2.5074    0.0000 C   0  0  0  0  0  0  0  0  0  0  0  0
  -10.9008    1.1370    0.0000 N   0  0  0  0  0  0  0  0  0  0  0  0
  -12.3926    1.2938    0.0000 N   0  0  0  0  0  0  0  0  0  0  0  0
  -12.7045    2.7611    0.0000 N   0  0  0  0  0  0  0  0  0  0  0  0
  -11.4055    3.5111    0.0000 N   0  0  0  0  0  0  0  0  0  0  0  0
  -11.2487    5.0028    0.0000 C   0  0  0  0  0  0  0  0  0  0  0  0
   -9.8783    5.6129    0.0000 C   0  0  0  0  0  0  0  0  0  0  0  0
   -9.7215    7.1047    0.0000 C   0  0  0  0  0  0  0  0  0  0  0  0
  -10.9351    7.9864    0.0000 C   0  0  0  0  0  0  0  0  0  0  0  0
  -12.3054    7.3763    0.0000 C   0  0  0  0  0  0  0  0  0  0  0  0
  -12.4622    5.8845    0.0000 C   0  0  0  0  0  0  0  0  0  0  0  0
   -7.8198    1.7045    0.0000 C   0  0  0  0  0  0  0  0  0  0  0  0
   -6.3526    2.0164    0.0000 C   0  0  0  0  0  0  0  0  0  0  0  0
   -5.3489    0.9017    0.0000 C   0  0  0  0  0  0  0  0  0  0  0  0
   -3.8817    1.2135    0.0000 C   0  0  0  0  0  0  0  0  0  0  0  0
   -2.8780    0.0988    0.0000 C   0  0  0  0  0  0  0  0  0  0  0  0
   -3.3415   -1.3278    0.0000 C   0  0  0  0  0  0  0  0  0  0  0  0
   -4.8087   -1.6396    0.0000 C   0  0  0  0  0  0  0  0  0  0  0  0
   -5.8124   -0.5249    0.0000 C   0  0  0  0  0  0  0  0  0  0  0  0
   -7.2796   -0.8368    0.0000 C   0  0  0  0  0  0  0  0  0  0  0  0
   -7.7432   -2.2634    0.0000 C   0  0  0  0  0  0  0  0  0  0  0  0
   -9.2104   -2.5752    0.0000 C   0  0  0  0  0  0  0  0  0  0  0  0
  -10.2141   -1.4605    0.0000 C   0  0  0  0  0  0  0  0  0  0  0  0
  -11.6813   -1.7724    0.0000 C   0  0  0  0  0  0  0  0  0  0  0  0
  -12.6850   -0.6577    0.0000 O   0  0  0  0  0  0  0  0  0  0  0  0
  -12.1448   -3.1990    0.0000 N   0  0  0  0  0  0  0  0  0  0  0  0
  -13.6121   -3.5108    0.0000 O   0  0  0  0  0  0  0  0  0  0  0  0
   -9.7506   -0.0339    0.0000 C   0  0  0  0  0  0  0  0  0  0  0  0
   -8.2833    0.2779    0.0000 C   0  0  0  0  0  0  0  0  0  0  0  0
   -2.0663    7.4918    0.0000 C   0  0  0  0  0  0  0  0  0  0  0  0
   -0.6960    8.1019    0.0000 C   0  0  0  0  0  0  0  0  0  0  0  0
  1  2  1  0
  2  3  2  0
  3  4  1  0
  4  5  2  0
  5  6  1  0
  6  7  2  0
  7  8  1  0
  8  9  2  0
  9 10  1  0
 10 11  1  0
 11 12  2  0
 12 13  1  0
 13 14  2  0
 14 15  1  0
 15 16  2  0
 16 17  1  0
 17 18  2  0
 18 19  1  0
 19 20  2  0
 20 21  1  0
 21 22  2  0
 22 23  1  0
 23 24  2  0
 24 25  1  0
 25 26  2  0
 14 27  1  0
 27 28  2  0
 28 29  1  0
 29 30  2  0
 30 31  1  0
 31 32  2  0
 32 33  1  0
 33 34  2  0
 34 35  1  0
 35 36  2  0
 36 37  1  0
 37 38  1  0
 38 39  2  0
 39 40  1  0
 40 41  2  0
 41 42  1  0
 42 43  2  0
 32 44  1  0
 44 45  2  0
 45 46  1  0
 46 47  2  0
 47 48  1  0
 48 49  2  0
 49 50  1  0
 50 51  2  0
 51 52  1  0
 52 53  2  0
 53 54  1  0
 54 55  2  0
 55 56  1  0
 56 57  2  0
 56 58  1  0
 58 59  1  0
 55 60  1  0
 60 61  1  0
  5 62  1  0
 62 63  2  0
 63  2  1  0
 10  6  1  0
 28 11  1  0
 45 29  1  0
 51 46  1  0
 61 52  1  0
 20 15  1  0
 26 21  1  0
 37 33  1  0
 43 38  1  0
M  END
>  <Title>  (1344) 
idABZRgen8

$$$$

     RDKit          2D

 27 27  0  0  0  0  0  0  0  0999 V2000
    7.9960   -1.2990    0.0000 C   0  0  0  0  0  0  0  0  0  0  0  0
    7.2460    0.0000    0.0000 O   0  0  0  0  0  0  0  0  0  0  0  0
    5.7460    0.0000    0.0000 C   0  0  0  0  0  0  0  0  0  0  0  0
    5.5502   -1.4872    0.0000 C   0  0  0  0  0  0  0  0  0  0  0  0
    4.9762   -2.8730    0.0000 C   0  0  0  0  0  0  0  0  0  0  0  0
    4.0630   -4.0630    0.0000 C   0  0  0  0  0  0  0  0  0  0  0  0
    2.8730   -4.9762    0.0000 C   0  0  0  0  0  0  0  0  0  0  0  0
    1.4872   -5.5502    0.0000 C   0  0  0  0  0  0  0  0  0  0  0  0
   -0.0000   -5.7460    0.0000 C   0  0  0  0  0  0  0  0  0  0  0  0
   -1.4872   -5.5502    0.0000 C   0  0  0  0  0  0  0  0  0  0  0  0
   -2.8730   -4.9762    0.0000 C   0  0  0  0  0  0  0  0  0  0  0  0
   -4.0630   -4.0630    0.0000 C   0  0  0  0  0  0  0  0  0  0  0  0
   -4.9762   -2.8730    0.0000 C   0  0  0  0  0  0  0  0  0  0  0  0
   -5.5502   -1.4872    0.0000 C   0  0  0  0  0  0  0  0  0  0  0  0
   -5.7460    0.0000    0.0000 C   0  0  0  0  0  0  0  0  0  0  0  0
   -5.5502    1.4872    0.0000 C   0  0  0  0  0  0  0  0  0  0  0  0
   -4.9762    2.8730    0.0000 C   0  0  0  0  0  0  0  0  0  0  0  0
   -4.0630    4.0630    0.0000 C   0  0  0  0  0  0  0  0  0  0  0  0
   -2.8730    4.9762    0.0000 C   0  0  0  0  0  0  0  0  0  0  0  0
   -1.4872    5.5502    0.0000 C   0  0  0  0  0  0  0  0  0  0  0  0
    0.0000    5.7460    0.0000 C   0  0  0  0  0  0  0  0  0  0  0  0
    1.4872    5.5502    0.0000 C   0  0  0  0  0  0  0  0  0  0  0  0
    2.8730    4.9762    0.0000 C   0  0  0  0  0  0  0  0  0  0  0  0
    4.0630    4.0630    0.0000 C   0  0  0  0  0  0  0  0  0  0  0  0
    4.9762    2.8730    0.0000 C   0  0  0  0  0  0  0  0  0  0  0  0
    5.5502    1.4872    0.0000 C   0  0  0  0  0  0  0  0  0  0  0  0
    6.9991    1.8754    0.0000 O   0  0  0  0  0  0  0  0  0  0  0  0
  1  2  1  0
  2  3  1  0
  3  4  2  0
  4  5  1  0
  5  6  2  0
  6  7  1  0
  7  8  2  0
  8  9  1  0
  9 10  2  0
 10 11  1  0
 11 12  2  0
 12 13  1  0
 13 14  2  0
 14 15  1  0
 15 16  2  0
 16 17  1  0
 17 18  2  0
 18 19  1  0
 19 20  2  0
 20 21  1  0
 21 22  2  0
 22 23  1  0
 23 24  2  0
 24 25  1  0
 25 26  2  0
 26 27  1  0
 26  3  1  0
M  END
>  <Title>  (1345) 
idABZSgen8

$$$$

     RDKit          2D

 46 52  0  0  0  0  0  0  0  0999 V2000
    3.0000    0.0000    0.0000 C   0  0  0  0  0  0  0  0  0  0  0  0
    1.5000    0.0000    0.0000 C   0  0  0  0  0  0  0  0  0  0  0  0
    0.7500    1.2990    0.0000 C   0  0  0  0  0  0  0  0  0  0  0  0
   -0.7500    1.2990    0.0000 C   0  0  0  0  0  0  0  0  0  0  0  0
   -1.5000    0.0000    0.0000 C   0  0  0  0  0  0  0  0  0  0  0  0
   -3.0000    0.0000    0.0000 C   0  0  0  0  0  0  0  0  0  0  0  0
   -3.8817   -1.2135    0.0000 N   0  0  0  0  0  0  0  0  0  0  0  0
   -5.3083   -0.7500    0.0000 N   0  0  0  0  0  0  0  0  0  0  0  0
   -5.3083    0.7500    0.0000 N   0  0  0  0  0  0  0  0  0  0  0  0
   -3.8817    1.2135    0.0000 N   0  0  0  0  0  0  0  0  0  0  0  0
   -3.4182    2.6401    0.0000 C   0  0  0  0  0  0  0  0  0  0  0  0
   -1.9509    2.9520    0.0000 C   0  0  0  0  0  0  0  0  0  0  0  0
   -1.4874    4.3786    0.0000 C   0  0  0  0  0  0  0  0  0  0  0  0
   -2.4911    5.4933    0.0000 C   0  0  0  0  0  0  0  0  0  0  0  0
   -2.0276    6.9199    0.0000 C   0  0  0  0  0  0  0  0  0  0  0  0
   -2.9093    8.1334    0.0000 N   0  0  0  0  0  0  0  0  0  0  0  0
   -2.0276    9.3469    0.0000 N   0  0  0  0  0  0  0  0  0  0  0  0
   -0.6010    8.8834    0.0000 N   0  0  0  0  0  0  0  0  0  0  0  0
   -0.6010    7.3834    0.0000 N   0  0  0  0  0  0  0  0  0  0  0  0
    0.6125    6.5017    0.0000 C   0  0  0  0  0  0  0  0  0  0  0  0
    0.4557    5.0099    0.0000 C   0  0  0  0  0  0  0  0  0  0  0  0
    1.6693    4.1283    0.0000 C   0  0  0  0  0  0  0  0  0  0  0  0
    3.0396    4.7384    0.0000 C   0  0  0  0  0  0  0  0  0  0  0  0
    4.2531    3.8567    0.0000 C   0  0  0  0  0  0  0  0  0  0  0  0
    4.0963    2.3649    0.0000 C   0  0  0  0  0  0  0  0  0  0  0  0
    5.3098    1.4832    0.0000 C   0  0  0  0  0  0  0  0  0  0  0  0
    6.6802    2.0933    0.0000 C   0  0  0  0  0  0  0  0  0  0  0  0
    6.8370    3.5851    0.0000 C   0  0  0  0  0  0  0  0  0  0  0  0
    5.6234    4.4668    0.0000 C   0  0  0  0  0  0  0  0  0  0  0  0
    3.1964    6.2301    0.0000 C   0  0  0  0  0  0  0  0  0  0  0  0
    1.9829    7.1118    0.0000 C   0  0  0  0  0  0  0  0  0  0  0  0
   -3.9583    5.1814    0.0000 C   0  0  0  0  0  0  0  0  0  0  0  0
   -4.4218    3.7548    0.0000 C   0  0  0  0  0  0  0  0  0  0  0  0
   -5.8891    3.4430    0.0000 C   0  0  0  0  0  0  0  0  0  0  0  0
   -6.8928    4.5577    0.0000 C   0  0  0  0  0  0  0  0  0  0  0  0
   -8.3600    4.2458    0.0000 C   0  0  0  0  0  0  0  0  0  0  0  0
   -8.8235    2.8192    0.0000 C   0  0  0  0  0  0  0  0  0  0  0  0
  -10.2907    2.5074    0.0000 C   0  0  0  0  0  0  0  0  0  0  0  0
  -10.7543    1.0808    0.0000 O   0  0  0  0  0  0  0  0  0  0  0  0
  -11.2944    3.6221    0.0000 N   0  0  0  0  0  0  0  0  0  0  0  0
  -12.7617    3.3102    0.0000 O   0  0  0  0  0  0  0  0  0  0  0  0
   -7.8198    1.7045    0.0000 C   0  0  0  0  0  0  0  0  0  0  0  0
   -6.3526    2.0164    0.0000 C   0  0  0  0  0  0  0  0  0  0  0  0
   -0.7500   -1.2990    0.0000 C   0  0  0  0  0  0  0  0  0  0  0  0
   -1.5000   -2.5981    0.0000 O   0  0  0  0  0  0  0  0  0  0  0  0
    0.7500   -1.2990    0.0000 N   0  0  0  0  0  0  0  0  0  0  0  0
  1  2  1  0
  2  3  2  0
  3  4  1  0
  4  5  2  0
  5  6  1  0
  6  7  2  0
  7  8  1  0
  8  9  2  0
  9 10  1  0
 10 11  1  0
 11 12  2  0
 12 13  1  0
 13 14  2  0
 14 15  1  0
 15 16  2  0
 16 17  1  0
 17 18  2  0
 18 19  1  0
 19 20  1  0
 20 21  2  0
 21 22  1  0
 22 23  2  0
 23 24  1  0
 24 25  2  0
 25 26  1  0
 26 27  2  0
 27 28  1  0
 28 29  2  0
 23 30  1  0
 30 31  2  0
 14 32  1  0
 32 33  2  0
 33 34  1  0
 34 35  2  0
 35 36  1  0
 36 37  2  0
 37 38  1  0
 38 39  2  0
 38 40  1  0
 40 41  1  0
 37 42  1  0
 42 43  1  0
  5 44  1  0
 44 45  2  0
 44 46  1  0
 46  2  1  0
 10  6  1  0
 33 11  1  0
 43 34  1  0
 19 15  1  0
 31 20  1  0
 29 24  1  0
M  END
>  <Title>  (1346) 
idABZTgen8

$$$$

     RDKit          2D

 29 32  0  0  0  0  0  0  0  0999 V2000
    3.0000    0.0000    0.0000 C   0  0  0  0  0  0  0  0  0  0  0  0
    1.5000    0.0000    0.0000 C   0  0  0  0  0  0  0  0  0  0  0  0
    0.7500    1.2990    0.0000 C   0  0  0  0  0  0  0  0  0  0  0  0
   -0.7500    1.2990    0.0000 C   0  0  0  0  0  0  0  0  0  0  0  0
   -1.5000    0.0000    0.0000 C   0  0  0  0  0  0  0  0  0  0  0  0
   -3.0000    0.0000    0.0000 C   0  0  0  0  0  0  0  0  0  0  0  0
   -3.8817   -1.2135    0.0000 N   0  0  0  0  0  0  0  0  0  0  0  0
   -5.3083   -0.7500    0.0000 N   0  0  0  0  0  0  0  0  0  0  0  0
   -5.3083    0.7500    0.0000 N   0  0  0  0  0  0  0  0  0  0  0  0
   -3.8817    1.2135    0.0000 N   0  0  0  0  0  0  0  0  0  0  0  0
   -3.4182    2.6401    0.0000 C   0  0  0  0  0  0  0  0  0  0  0  0
   -1.9509    2.9520    0.0000 C   0  0  0  0  0  0  0  0  0  0  0  0
   -1.4874    4.3786    0.0000 C   0  0  0  0  0  0  0  0  0  0  0  0
   -2.4911    5.4933    0.0000 C   0  0  0  0  0  0  0  0  0  0  0  0
   -2.0276    6.9199    0.0000 C   0  0  0  0  0  0  0  0  0  0  0  0
   -0.5604    7.2317    0.0000 N   0  0  0  0  0  0  0  0  0  0  0  0
   -0.0968    8.6583    0.0000 C   0  0  0  0  0  0  0  0  0  0  0  0
   -1.1005    9.7730    0.0000 O   0  0  0  0  0  0  0  0  0  0  0  0
    1.3704    8.9702    0.0000 C   0  0  0  0  0  0  0  0  0  0  0  0
    2.3741    7.8555    0.0000 C   0  0  0  0  0  0  0  0  0  0  0  0
    3.8413    8.1673    0.0000 C   0  0  0  0  0  0  0  0  0  0  0  0
    4.3048    9.5939    0.0000 C   0  0  0  0  0  0  0  0  0  0  0  0
    3.3011   10.7086    0.0000 C   0  0  0  0  0  0  0  0  0  0  0  0
    1.8339   10.3968    0.0000 C   0  0  0  0  0  0  0  0  0  0  0  0
   -3.9583    5.1814    0.0000 C   0  0  0  0  0  0  0  0  0  0  0  0
   -4.4218    3.7548    0.0000 C   0  0  0  0  0  0  0  0  0  0  0  0
   -0.7500   -1.2990    0.0000 C   0  0  0  0  0  0  0  0  0  0  0  0
   -1.5000   -2.5981    0.0000 O   0  0  0  0  0  0  0  0  0  0  0  0
    0.7500   -1.2990    0.0000 N   0  0  0  0  0  0  0  0  0  0  0  0
  1  2  1  0
  2  3  2  0
  3  4  1  0
  4  5  2  0
  5  6  1  0
  6  7  2  0
  7  8  1  0
  8  9  2  0
  9 10  1  0
 10 11  1  0
 11 12  2  0
 12 13  1  0
 13 14  2  0
 14 15  1  0
 15 16  1  0
 16 17  1  0
 17 18  2  0
 17 19  1  0
 19 20  2  0
 20 21  1  0
 21 22  2  0
 22 23  1  0
 23 24  2  0
 14 25  1  0
 25 26  2  0
  5 27  1  0
 27 28  2  0
 27 29  1  0
 29  2  1  0
 10  6  1  0
 26 11  1  0
 24 19  1  0
M  END
>  <Title>  (1347) 
idABZUgen8

$$$$

     RDKit          2D

 16 17  0  0  0  0  0  0  0  0999 V2000
   -0.7500   -3.8971    0.0000 O   0  0  0  0  0  0  0  0  0  0  0  0
    0.7500   -3.8971    0.0000 C   0  0  0  0  0  0  0  0  0  0  0  0
    1.5000   -2.5981    0.0000 N   0  0  0  0  0  0  0  0  0  0  0  0
    0.7500   -1.2990    0.0000 C   0  0  0  0  0  0  0  0  0  0  0  0
    1.5000    0.0000    0.0000 C   0  0  0  0  0  0  0  0  0  0  0  0
    0.7500    1.2990    0.0000 C   0  0  0  0  0  0  0  0  0  0  0  0
   -0.7500    1.2990    0.0000 C   0  0  0  0  0  0  0  0  0  0  0  0
   -1.5000    2.5981    0.0000 F   0  0  0  0  0  0  0  0  0  0  0  0
   -1.5000    0.0000    0.0000 C   0  0  0  0  0  0  0  0  0  0  0  0
   -0.7500   -1.2990    0.0000 C   0  0  0  0  0  0  0  0  0  0  0  0
    1.5000   -5.1962    0.0000 C   0  0  0  0  0  0  0  0  0  0  0  0
    0.7500   -6.4952    0.0000 C   0  0  0  0  0  0  0  0  0  0  0  0
    1.5000   -7.7942    0.0000 C   0  0  0  0  0  0  0  0  0  0  0  0
    3.0000   -7.7942    0.0000 C   0  0  0  0  0  0  0  0  0  0  0  0
    3.7500   -6.4952    0.0000 C   0  0  0  0  0  0  0  0  0  0  0  0
    3.0000   -5.1962    0.0000 C   0  0  0  0  0  0  0  0  0  0  0  0
  1  2  2  0
  2  3  1  0
  3  4  1  0
  4  5  2  0
  5  6  1  0
  6  7  2  0
  7  8  1  0
  7  9  1  0
  9 10  2  0
  2 11  1  0
 11 12  2  0
 12 13  1  0
 13 14  2  0
 14 15  1  0
 15 16  2  0
 10  4  1  0
 16 11  1  0
M  END
>  <Title>  (1348) 
idABZVgen8

$$$$

     RDKit          2D

 45 51  0  0  0  0  0  0  0  0999 V2000
    0.8311   10.2038    0.0000 C   0  0  0  0  0  0  0  0  0  0  0  0
   -0.5392    9.5937    0.0000 C   0  0  0  0  0  0  0  0  0  0  0  0
   -0.6960    8.1019    0.0000 C   0  0  0  0  0  0  0  0  0  0  0  0
   -2.0663    7.4918    0.0000 C   0  0  0  0  0  0  0  0  0  0  0  0
   -3.2798    8.3735    0.0000 C   0  0  0  0  0  0  0  0  0  0  0  0
   -4.6502    7.7634    0.0000 C   0  0  0  0  0  0  0  0  0  0  0  0
   -5.9492    8.5134    0.0000 N   0  0  0  0  0  0  0  0  0  0  0  0
   -7.0639    7.5097    0.0000 N   0  0  0  0  0  0  0  0  0  0  0  0
   -6.4538    6.1393    0.0000 N   0  0  0  0  0  0  0  0  0  0  0  0
   -4.9620    6.2961    0.0000 N   0  0  0  0  0  0  0  0  0  0  0  0
   -3.9583    5.1814    0.0000 C   0  0  0  0  0  0  0  0  0  0  0  0
   -2.4911    5.4933    0.0000 C   0  0  0  0  0  0  0  0  0  0  0  0
   -1.4874    4.3786    0.0000 C   0  0  0  0  0  0  0  0  0  0  0  0
   -1.9509    2.9520    0.0000 C   0  0  0  0  0  0  0  0  0  0  0  0
   -3.4182    2.6401    0.0000 C   0  0  0  0  0  0  0  0  0  0  0  0
   -4.4218    3.7548    0.0000 C   0  0  0  0  0  0  0  0  0  0  0  0
   -5.8891    3.4430    0.0000 N   0  0  0  0  0  0  0  0  0  0  0  0
   -6.8928    4.5577    0.0000 N   0  0  0  0  0  0  0  0  0  0  0  0
   -8.3600    4.2458    0.0000 N   0  0  0  0  0  0  0  0  0  0  0  0
   -8.8235    2.8192    0.0000 N   0  0  0  0  0  0  0  0  0  0  0  0
   -7.8198    1.7045    0.0000 N   0  0  0  0  0  0  0  0  0  0  0  0
   -6.3526    2.0164    0.0000 N   0  0  0  0  0  0  0  0  0  0  0  0
   -5.3489    0.9017    0.0000 C   0  0  0  0  0  0  0  0  0  0  0  0
   -3.8571    1.0585    0.0000 N   0  0  0  0  0  0  0  0  0  0  0  0
   -3.2470   -0.3119    0.0000 N   0  0  0  0  0  0  0  0  0  0  0  0
   -4.3617   -1.3156    0.0000 N   0  0  0  0  0  0  0  0  0  0  0  0
   -5.6608   -0.5656    0.0000 N   0  0  0  0  0  0  0  0  0  0  0  0
   -7.0311   -1.1757    0.0000 C   0  0  0  0  0  0  0  0  0  0  0  0
   -8.3301   -0.4257    0.0000 N   0  0  0  0  0  0  0  0  0  0  0  0
   -9.4448   -1.4294    0.0000 N   0  0  0  0  0  0  0  0  0  0  0  0
   -8.8347   -2.7997    0.0000 N   0  0  0  0  0  0  0  0  0  0  0  0
   -7.3430   -2.6429    0.0000 N   0  0  0  0  0  0  0  0  0  0  0  0
   -6.3393   -3.7576    0.0000 C   0  0  0  0  0  0  0  0  0  0  0  0
   -4.8720   -3.4457    0.0000 C   0  0  0  0  0  0  0  0  0  0  0  0
   -3.8683   -4.5605    0.0000 C   0  0  0  0  0  0  0  0  0  0  0  0
   -4.3319   -5.9870    0.0000 C   0  0  0  0  0  0  0  0  0  0  0  0
   -3.3282   -7.1018    0.0000 C   0  0  0  0  0  0  0  0  0  0  0  0
   -1.8609   -6.7899    0.0000 O   0  0  0  0  0  0  0  0  0  0  0  0
   -3.7917   -8.5283    0.0000 N   0  0  0  0  0  0  0  0  0  0  0  0
   -2.7880   -9.6431    0.0000 O   0  0  0  0  0  0  0  0  0  0  0  0
   -5.7991   -6.2989    0.0000 C   0  0  0  0  0  0  0  0  0  0  0  0
   -6.8028   -5.1842    0.0000 C   0  0  0  0  0  0  0  0  0  0  0  0
   -3.1230    9.8652    0.0000 C   0  0  0  0  0  0  0  0  0  0  0  0
   -4.3366   10.7469    0.0000 O   0  0  0  0  0  0  0  0  0  0  0  0
   -1.7527   10.4753    0.0000 N   0  0  0  0  0  0  0  0  0  0  0  0
  1  2  1  0
  2  3  2  0
  3  4  1  0
  4  5  2  0
  5  6  1  0
  6  7  2  0
  7  8  1  0
  8  9  2  0
  9 10  1  0
 10 11  1  0
 11 12  2  0
 12 13  1  0
 13 14  2  0
 14 15  1  0
 15 16  2  0
 16 17  1  0
 17 18  1  0
 18 19  2  0
 19 20  1  0
 20 21  2  0
 21 22  1  0
 22 23  1  0
 23 24  2  0
 24 25  1  0
 25 26  2  0
 26 27  1  0
 27 28  1  0
 28 29  2  0
 29 30  1  0
 30 31  2  0
 31 32  1  0
 32 33  1  0
 33 34  2  0
 34 35  1  0
 35 36  2  0
 36 37  1  0
 37 38  2  0
 37 39  1  0
 39 40  1  0
 36 41  1  0
 41 42  1  0
  5 43  1  0
 43 44  2  0
 43 45  1  0
 45  2  1  0
 10  6  1  0
 16 11  1  0
 22 17  1  0
 27 23  1  0
 32 28  1  0
 42 33  1  0
M  END
>  <Title>  (1349) 
idABZWgen8

$$$$

     RDKit          2D

 45 51  0  0  0  0  0  0  0  0999 V2000
   -4.8274   10.7735    0.0000 C   0  0  0  0  0  0  0  0  0  0  0  0
   -5.2909    9.3469    0.0000 C   0  0  0  0  0  0  0  0  0  0  0  0
   -4.2872    8.2322    0.0000 C   0  0  0  0  0  0  0  0  0  0  0  0
   -4.7508    6.8056    0.0000 C   0  0  0  0  0  0  0  0  0  0  0  0
   -6.2180    6.4937    0.0000 C   0  0  0  0  0  0  0  0  0  0  0  0
   -6.6815    5.0672    0.0000 C   0  0  0  0  0  0  0  0  0  0  0  0
   -8.1081    4.6036    0.0000 N   0  0  0  0  0  0  0  0  0  0  0  0
   -8.1081    3.1036    0.0000 N   0  0  0  0  0  0  0  0  0  0  0  0
   -6.6815    2.6401    0.0000 N   0  0  0  0  0  0  0  0  0  0  0  0
   -5.7998    3.8536    0.0000 N   0  0  0  0  0  0  0  0  0  0  0  0
   -4.2998    3.8536    0.0000 C   0  0  0  0  0  0  0  0  0  0  0  0
   -3.4182    2.6401    0.0000 C   0  0  0  0  0  0  0  0  0  0  0  0
   -1.9916    3.1036    0.0000 C   0  0  0  0  0  0  0  0  0  0  0  0
   -1.9916    4.6036    0.0000 C   0  0  0  0  0  0  0  0  0  0  0  0
   -0.7780    5.4853    0.0000 C   0  0  0  0  0  0  0  0  0  0  0  0
   -0.7780    6.9853    0.0000 N   0  0  0  0  0  0  0  0  0  0  0  0
    0.6485    7.4488    0.0000 N   0  0  0  0  0  0  0  0  0  0  0  0
    1.5302    6.2353    0.0000 N   0  0  0  0  0  0  0  0  0  0  0  0
    0.6485    5.0218    0.0000 N   0  0  0  0  0  0  0  0  0  0  0  0
    1.1121    3.5952    0.0000 C   0  0  0  0  0  0  0  0  0  0  0  0
    0.2304    2.3817    0.0000 N   0  0  0  0  0  0  0  0  0  0  0  0
    1.1121    1.1682    0.0000 N   0  0  0  0  0  0  0  0  0  0  0  0
    2.5387    1.6317    0.0000 N   0  0  0  0  0  0  0  0  0  0  0  0
    2.5387    3.1317    0.0000 N   0  0  0  0  0  0  0  0  0  0  0  0
    3.7522    4.0134    0.0000 C   0  0  0  0  0  0  0  0  0  0  0  0
    3.5954    5.5051    0.0000 C   0  0  0  0  0  0  0  0  0  0  0  0
    4.8089    6.3868    0.0000 C   0  0  0  0  0  0  0  0  0  0  0  0
    6.1792    5.7767    0.0000 C   0  0  0  0  0  0  0  0  0  0  0  0
    6.3360    4.2849    0.0000 C   0  0  0  0  0  0  0  0  0  0  0  0
    5.1225    3.4033    0.0000 C   0  0  0  0  0  0  0  0  0  0  0  0
    5.2793    1.9115    0.0000 C   0  0  0  0  0  0  0  0  0  0  0  0
    6.6496    1.3014    0.0000 C   0  0  0  0  0  0  0  0  0  0  0  0
    6.8064   -0.1904    0.0000 C   0  0  0  0  0  0  0  0  0  0  0  0
    5.5929   -1.0721    0.0000 C   0  0  0  0  0  0  0  0  0  0  0  0
    5.7497   -2.5639    0.0000 C   0  0  0  0  0  0  0  0  0  0  0  0
    4.5361   -3.4456    0.0000 O   0  0  0  0  0  0  0  0  0  0  0  0
    7.1200   -3.1740    0.0000 N   0  0  0  0  0  0  0  0  0  0  0  0
    7.2768   -4.6658    0.0000 O   0  0  0  0  0  0  0  0  0  0  0  0
    4.2226   -0.4620    0.0000 C   0  0  0  0  0  0  0  0  0  0  0  0
    4.0658    1.0298    0.0000 C   0  0  0  0  0  0  0  0  0  0  0  0
   -3.4182    5.0672    0.0000 C   0  0  0  0  0  0  0  0  0  0  0  0
   -3.8817    6.4937    0.0000 O   0  0  0  0  0  0  0  0  0  0  0  0
   -7.2217    7.6085    0.0000 N   0  0  0  0  0  0  0  0  0  0  0  0
   -6.7582    9.0350    0.0000 C   0  0  0  0  0  0  0  0  0  0  0  0
   -7.7618   10.1498    0.0000 O   0  0  0  0  0  0  0  0  0  0  0  0
  1  2  1  0
  2  3  2  0
  3  4  1  0
  4  5  2  0
  5  6  1  0
  6  7  2  0
  7  8  1  0
  8  9  2  0
  9 10  1  0
 10 11  1  0
 11 12  2  0
 12 13  1  0
 13 14  2  0
 14 15  1  0
 15 16  2  0
 16 17  1  0
 17 18  2  0
 18 19  1  0
 19 20  1  0
 20 21  2  0
 21 22  1  0
 22 23  2  0
 23 24  1  0
 24 25  1  0
 25 26  2  0
 26 27  1  0
 27 28  2  0
 28 29  1  0
 29 30  2  0
 30 31  1  0
 31 32  2  0
 32 33  1  0
 33 34  2  0
 34 35  1  0
 35 36  2  0
 35 37  1  0
 37 38  1  0
 34 39  1  0
 39 40  1  0
 14 41  1  0
 41 42  2  0
  5 43  1  0
 43 44  1  0
 44 45  2  0
 44  2  1  0
 10  6  1  0
 41 11  1  0
 19 15  1  0
 24 20  1  0
 30 25  1  0
 40 31  1  0
M  END
>  <Title>  (1350) 
idABZXgen8

$$$$

     RDKit          2D

 28 30  0  0  0  0  0  0  0  0999 V2000
    3.7500   -1.2990    0.0000 C   0  0  0  0  0  0  0  0  0  0  0  0
    3.0000    0.0000    0.0000 O   0  0  0  0  0  0  0  0  0  0  0  0
    1.5000    0.0000    0.0000 C   0  0  0  0  0  0  0  0  0  0  0  0
    0.7500   -1.2990    0.0000 C   0  0  0  0  0  0  0  0  0  0  0  0
   -0.7500   -1.2990    0.0000 C   0  0  0  0  0  0  0  0  0  0  0  0
   -1.5000    0.0000    0.0000 C   0  0  0  0  0  0  0  0  0  0  0  0
   -3.0000    0.0000    0.0000 C   0  0  0  0  0  0  0  0  0  0  0  0
   -3.7500   -1.2990    0.0000 O   0  0  0  0  0  0  0  0  0  0  0  0
   -3.7500    1.2990    0.0000 N   0  0  0  0  0  0  0  0  0  0  0  0
   -5.2500    1.2990    0.0000 C   0  0  0  0  0  0  0  0  0  0  0  0
   -6.1317    0.0855    0.0000 N   0  0  0  0  0  0  0  0  0  0  0  0
   -7.5583    0.5490    0.0000 N   0  0  0  0  0  0  0  0  0  0  0  0
   -7.5583    2.0490    0.0000 N   0  0  0  0  0  0  0  0  0  0  0  0
   -6.1317    2.5126    0.0000 N   0  0  0  0  0  0  0  0  0  0  0  0
   -5.6682    3.9391    0.0000 C   0  0  0  0  0  0  0  0  0  0  0  0
   -4.2009    4.2510    0.0000 C   0  0  0  0  0  0  0  0  0  0  0  0
   -3.7374    5.6776    0.0000 C   0  0  0  0  0  0  0  0  0  0  0  0
   -4.7411    6.7923    0.0000 C   0  0  0  0  0  0  0  0  0  0  0  0
   -4.2776    8.2189    0.0000 C   0  0  0  0  0  0  0  0  0  0  0  0
   -5.2813    9.3336    0.0000 O   0  0  0  0  0  0  0  0  0  0  0  0
   -2.8104    8.5308    0.0000 N   0  0  0  0  0  0  0  0  0  0  0  0
   -2.3468    9.9574    0.0000 O   0  0  0  0  0  0  0  0  0  0  0  0
   -6.2083    6.4805    0.0000 N   0  0  0  0  0  0  0  0  0  0  0  0
   -6.6718    5.0539    0.0000 C   0  0  0  0  0  0  0  0  0  0  0  0
   -8.1391    4.7420    0.0000 O   0  0  0  0  0  0  0  0  0  0  0  0
   -0.7500    1.2990    0.0000 N   0  0  0  0  0  0  0  0  0  0  0  0
    0.7500    1.2990    0.0000 C   0  0  0  0  0  0  0  0  0  0  0  0
    1.5000    2.5981    0.0000 O   0  0  0  0  0  0  0  0  0  0  0  0
  1  2  1  0
  2  3  1  0
  3  4  2  0
  4  5  1  0
  5  6  2  0
  6  7  1  0
  7  8  2  0
  7  9  1  0
  9 10  1  0
 10 11  2  0
 11 12  1  0
 12 13  2  0
 13 14  1  0
 14 15  1  0
 15 16  2  0
 16 17  1  0
 17 18  2  0
 18 19  1  0
 19 20  2  0
 19 21  1  0
 21 22  1  0
 18 23  1  0
 23 24  1  0
 24 25  2  0
  6 26  1  0
 26 27  1  0
 27 28  2  0
 27  3  1  0
 14 10  1  0
 24 15  1  0
M  END
>  <Title>  (1351) 
idABZYgen8

$$$$

     RDKit          2D

 53 61  0  0  0  0  0  0  0  0999 V2000
    3.0000    0.0000    0.0000 C   0  0  0  0  0  0  0  0  0  0  0  0
    1.5000    0.0000    0.0000 C   0  0  0  0  0  0  0  0  0  0  0  0
    0.7500   -1.2990    0.0000 C   0  0  0  0  0  0  0  0  0  0  0  0
   -0.7500   -1.2990    0.0000 C   0  0  0  0  0  0  0  0  0  0  0  0
   -1.5000    0.0000    0.0000 C   0  0  0  0  0  0  0  0  0  0  0  0
   -3.0000    0.0000    0.0000 C   0  0  0  0  0  0  0  0  0  0  0  0
   -3.8817   -1.2135    0.0000 N   0  0  0  0  0  0  0  0  0  0  0  0
   -5.3083   -0.7500    0.0000 N   0  0  0  0  0  0  0  0  0  0  0  0
   -5.3083    0.7500    0.0000 N   0  0  0  0  0  0  0  0  0  0  0  0
   -3.8817    1.2135    0.0000 N   0  0  0  0  0  0  0  0  0  0  0  0
   -3.4182    2.6401    0.0000 C   0  0  0  0  0  0  0  0  0  0  0  0
   -1.9509    2.9520    0.0000 C   0  0  0  0  0  0  0  0  0  0  0  0
   -1.4874    4.3786    0.0000 C   0  0  0  0  0  0  0  0  0  0  0  0
   -2.4911    5.4933    0.0000 C   0  0  0  0  0  0  0  0  0  0  0  0
   -3.9583    5.1814    0.0000 C   0  0  0  0  0  0  0  0  0  0  0  0
   -4.4218    3.7548    0.0000 N   0  0  0  0  0  0  0  0  0  0  0  0
   -5.8891    3.4430    0.0000 C   0  0  0  0  0  0  0  0  0  0  0  0
   -6.8928    4.5577    0.0000 C   0  0  0  0  0  0  0  0  0  0  0  0
   -8.3600    4.2458    0.0000 C   0  0  0  0  0  0  0  0  0  0  0  0
   -8.8235    2.8192    0.0000 C   0  0  0  0  0  0  0  0  0  0  0  0
  -10.2907    2.5074    0.0000 C   0  0  0  0  0  0  0  0  0  0  0  0
  -10.9008    1.1370    0.0000 N   0  0  0  0  0  0  0  0  0  0  0  0
  -12.3926    1.2938    0.0000 N   0  0  0  0  0  0  0  0  0  0  0  0
  -12.7045    2.7611    0.0000 N   0  0  0  0  0  0  0  0  0  0  0  0
  -11.4055    3.5111    0.0000 N   0  0  0  0  0  0  0  0  0  0  0  0
  -11.2487    5.0028    0.0000 C   0  0  0  0  0  0  0  0  0  0  0  0
   -9.8783    5.6129    0.0000 C   0  0  0  0  0  0  0  0  0  0  0  0
   -9.7215    7.1047    0.0000 C   0  0  0  0  0  0  0  0  0  0  0  0
  -10.9351    7.9864    0.0000 C   0  0  0  0  0  0  0  0  0  0  0  0
  -12.3054    7.3763    0.0000 C   0  0  0  0  0  0  0  0  0  0  0  0
  -12.4622    5.8845    0.0000 C   0  0  0  0  0  0  0  0  0  0  0  0
  -13.8325    5.2744    0.0000 C   0  0  0  0  0  0  0  0  0  0  0  0
  -13.9893    3.7826    0.0000 C   0  0  0  0  0  0  0  0  0  0  0  0
  -15.3596    3.1725    0.0000 C   0  0  0  0  0  0  0  0  0  0  0  0
  -16.5731    4.0542    0.0000 C   0  0  0  0  0  0  0  0  0  0  0  0
  -16.4163    5.5460    0.0000 C   0  0  0  0  0  0  0  0  0  0  0  0
  -15.0460    6.1561    0.0000 C   0  0  0  0  0  0  0  0  0  0  0  0
  -14.8892    7.6479    0.0000 C   0  0  0  0  0  0  0  0  0  0  0  0
  -13.5189    8.2580    0.0000 C   0  0  0  0  0  0  0  0  0  0  0  0
  -13.3621    9.7498    0.0000 C   0  0  0  0  0  0  0  0  0  0  0  0
  -14.5756   10.6314    0.0000 C   0  0  0  0  0  0  0  0  0  0  0  0
  -15.9460   10.0213    0.0000 C   0  0  0  0  0  0  0  0  0  0  0  0
  -16.1028    8.5295    0.0000 C   0  0  0  0  0  0  0  0  0  0  0  0
  -17.4731    7.9194    0.0000 C   0  0  0  0  0  0  0  0  0  0  0  0
  -18.6866    8.8011    0.0000 C   0  0  0  0  0  0  0  0  0  0  0  0
  -20.0569    8.1910    0.0000 C   0  0  0  0  0  0  0  0  0  0  0  0
  -20.2137    6.6992    0.0000 C   0  0  0  0  0  0  0  0  0  0  0  0
  -19.0002    5.8176    0.0000 C   0  0  0  0  0  0  0  0  0  0  0  0
  -17.6299    6.4277    0.0000 C   0  0  0  0  0  0  0  0  0  0  0  0
   -7.8198    1.7045    0.0000 C   0  0  0  0  0  0  0  0  0  0  0  0
   -6.3526    2.0164    0.0000 C   0  0  0  0  0  0  0  0  0  0  0  0
   -0.7500    1.2990    0.0000 C   0  0  0  0  0  0  0  0  0  0  0  0
    0.7500    1.2990    0.0000 C   0  0  0  0  0  0  0  0  0  0  0  0
  1  2  1  0
  2  3  2  0
  3  4  1  0
  4  5  2  0
  5  6  1  0
  6  7  2  0
  7  8  1  0
  8  9  2  0
  9 10  1  0
 10 11  1  0
 11 12  1  0
 12 13  1  0
 13 14  1  0
 14 15  1  0
 15 16  1  0
 16 17  1  0
 17 18  2  0
 18 19  1  0
 19 20  2  0
 20 21  1  0
 21 22  2  0
 22 23  1  0
 23 24  2  0
 24 25  1  0
 25 26  1  0
 26 27  2  0
 27 28  1  0
 28 29  2  0
 29 30  1  0
 30 31  2  0
 31 32  1  0
 32 33  2  0
 33 34  1  0
 34 35  2  0
 35 36  1  0
 36 37  2  0
 37 38  1  0
 38 39  2  0
 39 40  1  0
 40 41  2  0
 41 42  1  0
 42 43  2  0
 43 44  1  0
 44 45  2  0
 45 46  1  0
 46 47  2  0
 47 48  1  0
 48 49  2  0
 20 50  1  0
 50 51  2  0
  5 52  1  0
 52 53  2  0
 53  2  1  0
 10  6  1  0
 16 11  1  0
 51 17  1  0
 25 21  1  0
 31 26  1  0
 37 32  1  0
 43 38  1  0
 49 44  1  0
M  END
>  <Title>  (1352) 
idABZZgen8

$$$$

     RDKit          2D

 53 61  0  0  0  0  0  0  0  0999 V2000
   -4.8274   10.7735    0.0000 C   0  0  0  0  0  0  0  0  0  0  0  0
   -5.2909    9.3469    0.0000 C   0  0  0  0  0  0  0  0  0  0  0  0
   -4.2872    8.2322    0.0000 C   0  0  0  0  0  0  0  0  0  0  0  0
   -4.7508    6.8056    0.0000 C   0  0  0  0  0  0  0  0  0  0  0  0
   -6.2180    6.4937    0.0000 C   0  0  0  0  0  0  0  0  0  0  0  0
   -6.6815    5.0672    0.0000 C   0  0  0  0  0  0  0  0  0  0  0  0
   -8.1081    4.6036    0.0000 N   0  0  0  0  0  0  0  0  0  0  0  0
   -8.1081    3.1036    0.0000 N   0  0  0  0  0  0  0  0  0  0  0  0
   -6.6815    2.6401    0.0000 N   0  0  0  0  0  0  0  0  0  0  0  0
   -5.7998    3.8536    0.0000 N   0  0  0  0  0  0  0  0  0  0  0  0
   -4.2998    3.8536    0.0000 C   0  0  0  0  0  0  0  0  0  0  0  0
   -3.4182    2.6401    0.0000 C   0  0  0  0  0  0  0  0  0  0  0  0
   -1.9916    3.1036    0.0000 C   0  0  0  0  0  0  0  0  0  0  0  0
   -1.9916    4.6036    0.0000 C   0  0  0  0  0  0  0  0  0  0  0  0
   -0.7780    5.4853    0.0000 C   0  0  0  0  0  0  0  0  0  0  0  0
   -0.7780    6.9853    0.0000 C   0  0  0  0  0  0  0  0  0  0  0  0
    0.6485    7.4488    0.0000 N   0  0  0  0  0  0  0  0  0  0  0  0
    1.5302    6.2353    0.0000 N   0  0  0  0  0  0  0  0  0  0  0  0
    0.6485    5.0218    0.0000 N   0  0  0  0  0  0  0  0  0  0  0  0
    1.1121    3.5952    0.0000 C   0  0  0  0  0  0  0  0  0  0  0  0
    0.1084    2.4805    0.0000 C   0  0  0  0  0  0  0  0  0  0  0  0
    0.5719    1.0539    0.0000 C   0  0  0  0  0  0  0  0  0  0  0  0
    2.0391    0.7420    0.0000 C   0  0  0  0  0  0  0  0  0  0  0  0
    3.0428    1.8568    0.0000 C   0  0  0  0  0  0  0  0  0  0  0  0
    2.5793    3.2833    0.0000 C   0  0  0  0  0  0  0  0  0  0  0  0
    3.5830    4.3981    0.0000 C   0  0  0  0  0  0  0  0  0  0  0  0
    3.1195    5.8246    0.0000 C   0  0  0  0  0  0  0  0  0  0  0  0
    4.1232    6.9394    0.0000 C   0  0  0  0  0  0  0  0  0  0  0  0
    5.5904    6.6275    0.0000 C   0  0  0  0  0  0  0  0  0  0  0  0
    6.0539    5.2009    0.0000 C   0  0  0  0  0  0  0  0  0  0  0  0
    5.0502    4.0862    0.0000 C   0  0  0  0  0  0  0  0  0  0  0  0
    5.5137    2.6596    0.0000 C   0  0  0  0  0  0  0  0  0  0  0  0
    4.6321    1.4461    0.0000 N   0  0  0  0  0  0  0  0  0  0  0  0
    5.5137    0.2325    0.0000 N   0  0  0  0  0  0  0  0  0  0  0  0
    6.9403    0.6961    0.0000 N   0  0  0  0  0  0  0  0  0  0  0  0
    6.9403    2.1961    0.0000 N   0  0  0  0  0  0  0  0  0  0  0  0
    8.1538    3.0778    0.0000 C   0  0  0  0  0  0  0  0  0  0  0  0
    7.9970    4.5695    0.0000 C   0  0  0  0  0  0  0  0  0  0  0  0
    9.2106    5.4512    0.0000 C   0  0  0  0  0  0  0  0  0  0  0  0
   10.5809    4.8411    0.0000 C   0  0  0  0  0  0  0  0  0  0  0  0
   10.7377    3.3493    0.0000 C   0  0  0  0  0  0  0  0  0  0  0  0
    9.5242    2.4676    0.0000 C   0  0  0  0  0  0  0  0  0  0  0  0
    9.6810    0.9759    0.0000 C   0  0  0  0  0  0  0  0  0  0  0  0
   11.0513    0.3658    0.0000 C   0  0  0  0  0  0  0  0  0  0  0  0
   11.2081   -1.1260    0.0000 C   0  0  0  0  0  0  0  0  0  0  0  0
    9.9945   -2.0077    0.0000 C   0  0  0  0  0  0  0  0  0  0  0  0
    8.6242   -1.3976    0.0000 C   0  0  0  0  0  0  0  0  0  0  0  0
    8.4674    0.0942    0.0000 C   0  0  0  0  0  0  0  0  0  0  0  0
   -3.4182    5.0672    0.0000 C   0  0  0  0  0  0  0  0  0  0  0  0
   -3.8817    6.4937    0.0000 O   0  0  0  0  0  0  0  0  0  0  0  0
   -7.2217    7.6085    0.0000 C   0  0  0  0  0  0  0  0  0  0  0  0
   -8.6889    7.2966    0.0000 O   0  0  0  0  0  0  0  0  0  0  0  0
   -6.7582    9.0350    0.0000 N   0  0  0  0  0  0  0  0  0  0  0  0
  1  2  1  0
  2  3  2  0
  3  4  1  0
  4  5  2  0
  5  6  1  0
  6  7  2  0
  7  8  1  0
  8  9  2  0
  9 10  1  0
 10 11  1  0
 11 12  2  0
 12 13  1  0
 13 14  2  0
 14 15  1  0
 15 16  2  0
 16 17  1  0
 17 18  2  0
 18 19  1  0
 19 20  1  0
 20 21  2  0
 21 22  1  0
 22 23  2  0
 23 24  1  0
 24 25  2  0
 25 26  1  0
 26 27  2  0
 27 28  1  0
 28 29  2  0
 29 30  1  0
 30 31  2  0
 31 32  1  0
 32 33  2  0
 33 34  1  0
 34 35  2  0
 35 36  1  0
 36 37  1  0
 37 38  2  0
 38 39  1  0
 39 40  2  0
 40 41  1  0
 41 42  2  0
 42 43  1  0
 43 44  2  0
 44 45  1  0
 45 46  2  0
 46 47  1  0
 47 48  2  0
 14 49  1  0
 49 50  2  0
  5 51  1  0
 51 52  2  0
 51 53  1  0
 53  2  1  0
 10  6  1  0
 49 11  1  0
 19 15  1  0
 25 20  1  0
 31 26  1  0
 36 32  1  0
 42 37  1  0
 48 43  1  0
M  END
>  <Title>  (1353) 
idACAAgen8

$$$$

     RDKit          2D

 55 62  0  0  0  0  0  0  0  0999 V2000
  -10.1624    4.2767    0.0000 C   0  0  0  0  0  0  0  0  0  0  0  0
   -8.9488    3.3950    0.0000 C   0  0  0  0  0  0  0  0  0  0  0  0
   -9.1056    1.9033    0.0000 C   0  0  0  0  0  0  0  0  0  0  0  0
   -7.8921    1.0216    0.0000 C   0  0  0  0  0  0  0  0  0  0  0  0
   -6.5218    1.6317    0.0000 C   0  0  0  0  0  0  0  0  0  0  0  0
   -5.3083    0.7500    0.0000 C   0  0  0  0  0  0  0  0  0  0  0  0
   -5.3083   -0.7500    0.0000 N   0  0  0  0  0  0  0  0  0  0  0  0
   -3.8817   -1.2135    0.0000 N   0  0  0  0  0  0  0  0  0  0  0  0
   -3.0000    0.0000    0.0000 N   0  0  0  0  0  0  0  0  0  0  0  0
   -3.8817    1.2135    0.0000 N   0  0  0  0  0  0  0  0  0  0  0  0
   -3.4182    2.6401    0.0000 C   0  0  0  0  0  0  0  0  0  0  0  0
   -4.2998    3.8536    0.0000 C   0  0  0  0  0  0  0  0  0  0  0  0
   -3.4182    5.0672    0.0000 C   0  0  0  0  0  0  0  0  0  0  0  0
   -1.9916    4.6036    0.0000 C   0  0  0  0  0  0  0  0  0  0  0  0
   -1.9916    3.1036    0.0000 N   0  0  0  0  0  0  0  0  0  0  0  0
   -0.7780    2.2220    0.0000 C   0  0  0  0  0  0  0  0  0  0  0  0
   -0.9348    0.7302    0.0000 C   0  0  0  0  0  0  0  0  0  0  0  0
    0.2787   -0.1515    0.0000 C   0  0  0  0  0  0  0  0  0  0  0  0
    1.6490    0.4586    0.0000 C   0  0  0  0  0  0  0  0  0  0  0  0
    2.8625   -0.4231    0.0000 C   0  0  0  0  0  0  0  0  0  0  0  0
    2.7057   -1.9149    0.0000 O   0  0  0  0  0  0  0  0  0  0  0  0
    4.2329    0.1870    0.0000 N   0  0  0  0  0  0  0  0  0  0  0  0
    5.4464   -0.6946    0.0000 C   0  0  0  0  0  0  0  0  0  0  0  0
    5.4464   -2.1946    0.0000 N   0  0  0  0  0  0  0  0  0  0  0  0
    6.8730   -2.6582    0.0000 N   0  0  0  0  0  0  0  0  0  0  0  0
    7.7546   -1.4446    0.0000 N   0  0  0  0  0  0  0  0  0  0  0  0
    6.8730   -0.2311    0.0000 N   0  0  0  0  0  0  0  0  0  0  0  0
    7.3365    1.1955    0.0000 C   0  0  0  0  0  0  0  0  0  0  0  0
    8.8037    1.5073    0.0000 C   0  0  0  0  0  0  0  0  0  0  0  0
    9.2672    2.9339    0.0000 C   0  0  0  0  0  0  0  0  0  0  0  0
    8.2635    4.0486    0.0000 C   0  0  0  0  0  0  0  0  0  0  0  0
    6.7963    3.7368    0.0000 C   0  0  0  0  0  0  0  0  0  0  0  0
    6.3328    2.3102    0.0000 C   0  0  0  0  0  0  0  0  0  0  0  0
    1.8058    1.9504    0.0000 C   0  0  0  0  0  0  0  0  0  0  0  0
    0.5923    2.8321    0.0000 C   0  0  0  0  0  0  0  0  0  0  0  0
    0.7491    4.3238    0.0000 C   0  0  0  0  0  0  0  0  0  0  0  0
   -0.3656    5.3275    0.0000 C   0  0  0  0  0  0  0  0  0  0  0  0
    0.2445    6.6979    0.0000 C   0  0  0  0  0  0  0  0  0  0  0  0
    1.7362    6.5411    0.0000 C   0  0  0  0  0  0  0  0  0  0  0  0
    2.7399    7.6558    0.0000 O   0  0  0  0  0  0  0  0  0  0  0  0
    4.2072    7.3439    0.0000 C   0  0  0  0  0  0  0  0  0  0  0  0
    4.6707    5.9173    0.0000 C   0  0  0  0  0  0  0  0  0  0  0  0
    6.1379    5.6055    0.0000 C   0  0  0  0  0  0  0  0  0  0  0  0
    7.1416    6.7202    0.0000 C   0  0  0  0  0  0  0  0  0  0  0  0
    8.6088    6.4083    0.0000 C   0  0  0  0  0  0  0  0  0  0  0  0
    9.6125    7.5230    0.0000 O   0  0  0  0  0  0  0  0  0  0  0  0
    9.0723    4.9817    0.0000 N   0  0  0  0  0  0  0  0  0  0  0  0
   10.5396    4.6699    0.0000 O   0  0  0  0  0  0  0  0  0  0  0  0
    6.6781    8.1468    0.0000 C   0  0  0  0  0  0  0  0  0  0  0  0
    5.2109    8.4586    0.0000 C   0  0  0  0  0  0  0  0  0  0  0  0
    2.0481    5.0738    0.0000 C   0  0  0  0  0  0  0  0  0  0  0  0
    3.4184    4.4637    0.0000 O   0  0  0  0  0  0  0  0  0  0  0  0
   -6.3650    3.1235    0.0000 N   0  0  0  0  0  0  0  0  0  0  0  0
   -7.5785    4.0051    0.0000 C   0  0  0  0  0  0  0  0  0  0  0  0
   -7.4217    5.4969    0.0000 O   0  0  0  0  0  0  0  0  0  0  0  0
  1  2  1  0
  2  3  2  0
  3  4  1  0
  4  5  2  0
  5  6  1  0
  6  7  2  0
  7  8  1  0
  8  9  2  0
  9 10  1  0
 10 11  1  0
 11 12  2  0
 12 13  1  0
 13 14  2  0
 14 15  1  0
 15 16  1  0
 16 17  2  0
 17 18  1  0
 18 19  2  0
 19 20  1  0
 20 21  2  0
 20 22  1  0
 22 23  1  0
 23 24  2  0
 24 25  1  0
 25 26  2  0
 26 27  1  0
 27 28  1  0
 28 29  2  0
 29 30  1  0
 30 31  2  0
 31 32  1  0
 32 33  2  0
 19 34  1  0
 34 35  2  0
 35 36  1  0
 36 37  2  0
 37 38  1  0
 38 39  2  0
 39 40  1  0
 40 41  1  0
 41 42  2  0
 42 43  1  0
 43 44  2  0
 44 45  1  0
 45 46  2  0
 45 47  1  0
 47 48  1  0
 44 49  1  0
 49 50  1  0
 39 51  1  0
 51 52  2  0
  5 53  1  0
 53 54  1  0
 54 55  2  0
 54  2  1  0
 10  6  1  0
 15 11  1  0
 35 16  1  0
 51 36  1  0
 27 23  1  0
 33 28  1  0
 50 41  1  0
M  END
>  <Title>  (1354) 
idACABgen8

$$$$

     RDKit          2D

 14 15  0  0  0  0  0  0  0  0999 V2000
    1.6798    5.9095    0.0000 C   0  0  0  0  0  0  0  0  0  0  0  0
    1.6798    4.4095    0.0000 C   0  0  0  0  0  0  0  0  0  0  0  0
    2.9789    3.6595    0.0000 C   0  0  0  0  0  0  0  0  0  0  0  0
    2.9789    2.1595    0.0000 C   0  0  0  0  0  0  0  0  0  0  0  0
    1.6798    1.4095    0.0000 C   0  0  0  0  0  0  0  0  0  0  0  0
    2.1929    0.0000    0.0000 C   0  0  0  0  0  0  0  0  0  0  0  0
    1.6798   -1.4095    0.0000 C   0  0  0  0  0  0  0  0  0  0  0  0
    0.3808   -2.1595    0.0000 C   0  0  0  0  0  0  0  0  0  0  0  0
   -1.0964   -1.8991    0.0000 C   0  0  0  0  0  0  0  0  0  0  0  0
   -2.0606   -0.7500    0.0000 C   0  0  0  0  0  0  0  0  0  0  0  0
   -2.0606    0.7500    0.0000 C   0  0  0  0  0  0  0  0  0  0  0  0
   -1.0964    1.8991    0.0000 C   0  0  0  0  0  0  0  0  0  0  0  0
    0.3808    2.1595    0.0000 C   0  0  0  0  0  0  0  0  0  0  0  0
    0.3808    3.6595    0.0000 N   0  0  0  0  0  0  0  0  0  0  0  0
  1  2  1  0
  2  3  2  0
  3  4  1  0
  4  5  2  0
  5  6  1  0
  6  7  2  0
  7  8  1  0
  8  9  2  0
  9 10  1  0
 10 11  2  0
 11 12  1  0
 12 13  2  0
 13 14  1  0
 14  2  1  0
 13  5  1  0
M  END
>  <Title>  (1355) 
idACACgen8

$$$$

     RDKit          2D

 44 50  0  0  0  0  0  0  0  0999 V2000
   -1.4599  -11.4255    0.0000 C   0  0  0  0  0  0  0  0  0  0  0  0
   -0.0896  -10.8154    0.0000 O   0  0  0  0  0  0  0  0  0  0  0  0
    0.0672   -9.3236    0.0000 C   0  0  0  0  0  0  0  0  0  0  0  0
    1.3662   -8.5736    0.0000 C   0  0  0  0  0  0  0  0  0  0  0  0
    1.0544   -7.1064    0.0000 C   0  0  0  0  0  0  0  0  0  0  0  0
   -0.4374   -6.9496    0.0000 C   0  0  0  0  0  0  0  0  0  0  0  0
   -1.1874   -5.6506    0.0000 C   0  0  0  0  0  0  0  0  0  0  0  0
   -2.6792   -5.4938    0.0000 N   0  0  0  0  0  0  0  0  0  0  0  0
   -2.9911   -4.0266    0.0000 N   0  0  0  0  0  0  0  0  0  0  0  0
   -1.6920   -3.2766    0.0000 N   0  0  0  0  0  0  0  0  0  0  0  0
   -0.5773   -4.2803    0.0000 N   0  0  0  0  0  0  0  0  0  0  0  0
    0.8899   -3.9684    0.0000 C   0  0  0  0  0  0  0  0  0  0  0  0
    2.0046   -4.9721    0.0000 C   0  0  0  0  0  0  0  0  0  0  0  0
    3.3037   -4.2221    0.0000 C   0  0  0  0  0  0  0  0  0  0  0  0
    2.9918   -2.7549    0.0000 C   0  0  0  0  0  0  0  0  0  0  0  0
    1.5000   -2.5981    0.0000 N   0  0  0  0  0  0  0  0  0  0  0  0
    0.7500   -1.2990    0.0000 C   0  0  0  0  0  0  0  0  0  0  0  0
    1.5000    0.0000    0.0000 C   0  0  0  0  0  0  0  0  0  0  0  0
    0.7500    1.2990    0.0000 C   0  0  0  0  0  0  0  0  0  0  0  0
   -0.7500    1.2990    0.0000 C   0  0  0  0  0  0  0  0  0  0  0  0
   -1.5000    2.5981    0.0000 C   0  0  0  0  0  0  0  0  0  0  0  0
   -3.0000    2.5981    0.0000 O   0  0  0  0  0  0  0  0  0  0  0  0
   -0.7500    3.8971    0.0000 N   0  0  0  0  0  0  0  0  0  0  0  0
   -1.5000    5.1962    0.0000 C   0  0  0  0  0  0  0  0  0  0  0  0
   -2.9918    5.3529    0.0000 N   0  0  0  0  0  0  0  0  0  0  0  0
   -3.3037    6.8202    0.0000 N   0  0  0  0  0  0  0  0  0  0  0  0
   -2.0046    7.5702    0.0000 N   0  0  0  0  0  0  0  0  0  0  0  0
   -0.8899    6.5665    0.0000 N   0  0  0  0  0  0  0  0  0  0  0  0
    0.5773    6.8783    0.0000 C   0  0  0  0  0  0  0  0  0  0  0  0
    1.5810    5.7636    0.0000 C   0  0  0  0  0  0  0  0  0  0  0  0
    3.0482    6.0755    0.0000 C   0  0  0  0  0  0  0  0  0  0  0  0
    3.5118    7.5021    0.0000 C   0  0  0  0  0  0  0  0  0  0  0  0
    2.5081    8.6168    0.0000 C   0  0  0  0  0  0  0  0  0  0  0  0
    1.0409    8.3049    0.0000 C   0  0  0  0  0  0  0  0  0  0  0  0
    0.0372    9.4196    0.0000 C   0  0  0  0  0  0  0  0  0  0  0  0
    0.5007   10.8462    0.0000 C   0  0  0  0  0  0  0  0  0  0  0  0
   -0.5030   11.9609    0.0000 C   0  0  0  0  0  0  0  0  0  0  0  0
   -1.9702   11.6491    0.0000 C   0  0  0  0  0  0  0  0  0  0  0  0
   -2.4338   10.2225    0.0000 C   0  0  0  0  0  0  0  0  0  0  0  0
   -1.4301    9.1078    0.0000 C   0  0  0  0  0  0  0  0  0  0  0  0
   -1.5000    0.0000    0.0000 C   0  0  0  0  0  0  0  0  0  0  0  0
   -0.7500   -1.2990    0.0000 C   0  0  0  0  0  0  0  0  0  0  0  0
   -1.0475   -8.3199    0.0000 C   0  0  0  0  0  0  0  0  0  0  0  0
   -2.5148   -8.6318    0.0000 O   0  0  0  0  0  0  0  0  0  0  0  0
  1  2  1  0
  2  3  1  0
  3  4  2  0
  4  5  1  0
  5  6  2  0
  6  7  1  0
  7  8  2  0
  8  9  1  0
  9 10  2  0
 10 11  1  0
 11 12  1  0
 12 13  2  0
 13 14  1  0
 14 15  2  0
 15 16  1  0
 16 17  1  0
 17 18  2  0
 18 19  1  0
 19 20  2  0
 20 21  1  0
 21 22  2  0
 21 23  1  0
 23 24  1  0
 24 25  2  0
 25 26  1  0
 26 27  2  0
 27 28  1  0
 28 29  1  0
 29 30  2  0
 30 31  1  0
 31 32  2  0
 32 33  1  0
 33 34  2  0
 34 35  1  0
 35 36  2  0
 36 37  1  0
 37 38  2  0
 38 39  1  0
 39 40  2  0
 20 41  1  0
 41 42  1  0
  6 43  1  0
 43 44  2  0
 43  3  1  0
 11  7  1  0
 16 12  1  0
 42 17  1  0
 28 24  1  0
 34 29  1  0
 40 35  1  0
M  END
>  <Title>  (1356) 
idACADgen8

$$$$

     RDKit          2D

 38 42  0  0  0  0  0  0  0  0999 V2000
    3.0000   -5.1962    0.0000 O   0  0  0  0  0  0  0  0  0  0  0  0
    1.5000   -5.1962    0.0000 C   0  0  0  0  0  0  0  0  0  0  0  0
    0.7500   -3.8971    0.0000 N   0  0  0  0  0  0  0  0  0  0  0  0
    1.5000   -2.5981    0.0000 C   0  0  0  0  0  0  0  0  0  0  0  0
    0.7500   -1.2990    0.0000 C   0  0  0  0  0  0  0  0  0  0  0  0
    1.5000    0.0000    0.0000 C   0  0  0  0  0  0  0  0  0  0  0  0
    0.7500    1.2990    0.0000 C   0  0  0  0  0  0  0  0  0  0  0  0
   -0.7500    1.2990    0.0000 C   0  0  0  0  0  0  0  0  0  0  0  0
   -1.5000    2.5981    0.0000 C   0  0  0  0  0  0  0  0  0  0  0  0
   -0.7500    3.8971    0.0000 C   0  0  0  0  0  0  0  0  0  0  0  0
   -1.5000    5.1962    0.0000 C   0  0  0  0  0  0  0  0  0  0  0  0
   -3.0000    5.1962    0.0000 C   0  0  0  0  0  0  0  0  0  0  0  0
   -3.7500    6.4952    0.0000 C   0  0  0  0  0  0  0  0  0  0  0  0
   -5.2500    6.4952    0.0000 O   0  0  0  0  0  0  0  0  0  0  0  0
   -3.0000    7.7942    0.0000 N   0  0  0  0  0  0  0  0  0  0  0  0
   -3.7500    9.0933    0.0000 C   0  0  0  0  0  0  0  0  0  0  0  0
   -5.2418    9.2501    0.0000 N   0  0  0  0  0  0  0  0  0  0  0  0
   -5.5537   10.7173    0.0000 N   0  0  0  0  0  0  0  0  0  0  0  0
   -4.2546   11.4673    0.0000 N   0  0  0  0  0  0  0  0  0  0  0  0
   -3.1399   10.4636    0.0000 N   0  0  0  0  0  0  0  0  0  0  0  0
   -1.6727   10.7755    0.0000 C   0  0  0  0  0  0  0  0  0  0  0  0
   -0.6690    9.6607    0.0000 C   0  0  0  0  0  0  0  0  0  0  0  0
    0.7982    9.9726    0.0000 C   0  0  0  0  0  0  0  0  0  0  0  0
    1.2618   11.3992    0.0000 C   0  0  0  0  0  0  0  0  0  0  0  0
    0.2581   12.5139    0.0000 C   0  0  0  0  0  0  0  0  0  0  0  0
   -1.2091   12.2020    0.0000 C   0  0  0  0  0  0  0  0  0  0  0  0
   -3.7500    3.8971    0.0000 C   0  0  0  0  0  0  0  0  0  0  0  0
   -3.0000    2.5981    0.0000 C   0  0  0  0  0  0  0  0  0  0  0  0
   -1.5000    0.0000    0.0000 C   0  0  0  0  0  0  0  0  0  0  0  0
   -0.7500   -1.2990    0.0000 C   0  0  0  0  0  0  0  0  0  0  0  0
    0.7500   -6.4952    0.0000 N   0  0  0  0  0  0  0  0  0  0  0  0
    1.5000   -7.7942    0.0000 C   0  0  0  0  0  0  0  0  0  0  0  0
    0.7500   -9.0933    0.0000 C   0  0  0  0  0  0  0  0  0  0  0  0
    1.5000  -10.3923    0.0000 C   0  0  0  0  0  0  0  0  0  0  0  0
    3.0000  -10.3923    0.0000 C   0  0  0  0  0  0  0  0  0  0  0  0
    3.7500   -9.0933    0.0000 C   0  0  0  0  0  0  0  0  0  0  0  0
    3.0000   -7.7942    0.0000 C   0  0  0  0  0  0  0  0  0  0  0  0
    3.7500   -6.4952    0.0000 O   0  0  0  0  0  0  0  0  0  0  0  0
  1  2  2  0
  2  3  1  0
  3  4  1  0
  4  5  1  0
  5  6  2  0
  6  7  1  0
  7  8  2  0
  8  9  1  0
  9 10  2  0
 10 11  1  0
 11 12  2  0
 12 13  1  0
 13 14  2  0
 13 15  1  0
 15 16  1  0
 16 17  2  0
 17 18  1  0
 18 19  2  0
 19 20  1  0
 20 21  1  0
 21 22  2  0
 22 23  1  0
 23 24  2  0
 24 25  1  0
 25 26  2  0
 12 27  1  0
 27 28  2  0
  8 29  1  0
 29 30  2  0
  2 31  1  0
 31 32  1  0
 32 33  2  0
 33 34  1  0
 34 35  2  0
 35 36  1  0
 36 37  2  0
 37 38  1  0
 30  5  1  0
 37 32  1  0
 28  9  1  0
 20 16  1  0
 26 21  1  0
M  END
>  <Title>  (1357) 
idACAEgen8

$$$$

     RDKit          2D

 38 42  0  0  0  0  0  0  0  0999 V2000
    9.1405   -3.7127    0.0000 C   0  0  0  0  0  0  0  0  0  0  0  0
    8.3142   -2.4608    0.0000 C   0  0  0  0  0  0  0  0  0  0  0  0
    8.9851   -1.1193    0.0000 C   0  0  0  0  0  0  0  0  0  0  0  0
    8.1588    0.1326    0.0000 C   0  0  0  0  0  0  0  0  0  0  0  0
    6.6615    0.0429    0.0000 C   0  0  0  0  0  0  0  0  0  0  0  0
    5.8351    1.2947    0.0000 C   0  0  0  0  0  0  0  0  0  0  0  0
    6.5061    2.6363    0.0000 O   0  0  0  0  0  0  0  0  0  0  0  0
    4.3378    1.2050    0.0000 N   0  0  0  0  0  0  0  0  0  0  0  0
    3.5115    2.4569    0.0000 C   0  0  0  0  0  0  0  0  0  0  0  0
    4.0385    3.8613    0.0000 N   0  0  0  0  0  0  0  0  0  0  0  0
    2.8658    4.7965    0.0000 N   0  0  0  0  0  0  0  0  0  0  0  0
    1.6139    3.9701    0.0000 N   0  0  0  0  0  0  0  0  0  0  0  0
    2.0130    2.5242    0.0000 N   0  0  0  0  0  0  0  0  0  0  0  0
    1.0777    1.3515    0.0000 C   0  0  0  0  0  0  0  0  0  0  0  0
    1.7286    0.0000    0.0000 C   0  0  0  0  0  0  0  0  0  0  0  0
    1.0777   -1.3515    0.0000 C   0  0  0  0  0  0  0  0  0  0  0  0
   -0.3846   -1.6852    0.0000 C   0  0  0  0  0  0  0  0  0  0  0  0
   -0.7184   -3.1476    0.0000 C   0  0  0  0  0  0  0  0  0  0  0  0
    0.3812   -4.1679    0.0000 O   0  0  0  0  0  0  0  0  0  0  0  0
   -2.1518   -3.5898    0.0000 N   0  0  0  0  0  0  0  0  0  0  0  0
   -2.4856   -5.0522    0.0000 O   0  0  0  0  0  0  0  0  0  0  0  0
   -1.5574   -0.7500    0.0000 N   0  0  0  0  0  0  0  0  0  0  0  0
   -1.5574    0.7500    0.0000 N   0  0  0  0  0  0  0  0  0  0  0  0
   -0.3846    1.6852    0.0000 N   0  0  0  0  0  0  0  0  0  0  0  0
   -0.7184    3.1476    0.0000 C   0  0  0  0  0  0  0  0  0  0  0  0
    0.3812    4.1679    0.0000 C   0  0  0  0  0  0  0  0  0  0  0  0
    0.0474    5.6303    0.0000 C   0  0  0  0  0  0  0  0  0  0  0  0
   -1.3860    6.0724    0.0000 C   0  0  0  0  0  0  0  0  0  0  0  0
   -1.7198    7.5348    0.0000 C   0  0  0  0  0  0  0  0  0  0  0  0
   -0.6202    8.5551    0.0000 C   0  0  0  0  0  0  0  0  0  0  0  0
   -0.9540   10.0175    0.0000 C   0  0  0  0  0  0  0  0  0  0  0  0
   -2.3873   10.4596    0.0000 C   0  0  0  0  0  0  0  0  0  0  0  0
   -3.4869    9.4393    0.0000 C   0  0  0  0  0  0  0  0  0  0  0  0
   -3.1531    7.9769    0.0000 C   0  0  0  0  0  0  0  0  0  0  0  0
   -2.4856    5.0522    0.0000 C   0  0  0  0  0  0  0  0  0  0  0  0
   -2.1518    3.5898    0.0000 C   0  0  0  0  0  0  0  0  0  0  0  0
    5.9905   -1.2987    0.0000 C   0  0  0  0  0  0  0  0  0  0  0  0
    6.8169   -2.5505    0.0000 C   0  0  0  0  0  0  0  0  0  0  0  0
  1  2  1  0
  2  3  2  0
  3  4  1  0
  4  5  2  0
  5  6  1  0
  6  7  2  0
  6  8  1  0
  8  9  1  0
  9 10  2  0
 10 11  1  0
 11 12  2  0
 12 13  1  0
 13 14  1  0
 14 15  2  0
 15 16  1  0
 16 17  2  0
 17 18  1  0
 18 19  2  0
 18 20  1  0
 20 21  1  0
 17 22  1  0
 22 23  2  0
 23 24  1  0
 24 25  1  0
 25 26  2  0
 26 27  1  0
 27 28  2  0
 28 29  1  0
 29 30  2  0
 30 31  1  0
 31 32  2  0
 32 33  1  0
 33 34  2  0
 28 35  1  0
 35 36  2  0
  5 37  1  0
 37 38  2  0
 38  2  1  0
 13  9  1  0
 24 14  1  0
 36 25  1  0
 34 29  1  0
M  END
>  <Title>  (1358) 
idACAFgen8

$$$$

     RDKit          2D

 35 40  0  0  0  0  0  0  0  0999 V2000
    3.0000    0.0000    0.0000 C   0  0  0  0  0  0  0  0  0  0  0  0
    1.5000    0.0000    0.0000 C   0  0  0  0  0  0  0  0  0  0  0  0
    0.7500   -1.2990    0.0000 C   0  0  0  0  0  0  0  0  0  0  0  0
   -0.7500   -1.2990    0.0000 C   0  0  0  0  0  0  0  0  0  0  0  0
   -1.5000    0.0000    0.0000 C   0  0  0  0  0  0  0  0  0  0  0  0
   -3.0000    0.0000    0.0000 C   0  0  0  0  0  0  0  0  0  0  0  0
   -3.8817   -1.2135    0.0000 N   0  0  0  0  0  0  0  0  0  0  0  0
   -5.3083   -0.7500    0.0000 N   0  0  0  0  0  0  0  0  0  0  0  0
   -5.3083    0.7500    0.0000 N   0  0  0  0  0  0  0  0  0  0  0  0
   -3.8817    1.2135    0.0000 N   0  0  0  0  0  0  0  0  0  0  0  0
   -3.4182    2.6401    0.0000 C   0  0  0  0  0  0  0  0  0  0  0  0
   -1.9509    2.9520    0.0000 C   0  0  0  0  0  0  0  0  0  0  0  0
   -1.4874    4.3786    0.0000 C   0  0  0  0  0  0  0  0  0  0  0  0
   -2.4911    5.4933    0.0000 C   0  0  0  0  0  0  0  0  0  0  0  0
   -3.9583    5.1814    0.0000 C   0  0  0  0  0  0  0  0  0  0  0  0
   -4.4218    3.7548    0.0000 C   0  0  0  0  0  0  0  0  0  0  0  0
   -5.8891    3.4430    0.0000 C   0  0  0  0  0  0  0  0  0  0  0  0
   -6.4992    2.0726    0.0000 N   0  0  0  0  0  0  0  0  0  0  0  0
   -7.9910    2.2294    0.0000 N   0  0  0  0  0  0  0  0  0  0  0  0
   -8.3028    3.6967    0.0000 N   0  0  0  0  0  0  0  0  0  0  0  0
   -7.0038    4.4467    0.0000 N   0  0  0  0  0  0  0  0  0  0  0  0
   -6.8470    5.9384    0.0000 C   0  0  0  0  0  0  0  0  0  0  0  0
   -5.4767    6.5485    0.0000 C   0  0  0  0  0  0  0  0  0  0  0  0
   -5.3199    8.0403    0.0000 C   0  0  0  0  0  0  0  0  0  0  0  0
   -6.5334    8.9220    0.0000 C   0  0  0  0  0  0  0  0  0  0  0  0
   -6.3766   10.4138    0.0000 C   0  0  0  0  0  0  0  0  0  0  0  0
   -5.0063   11.0239    0.0000 C   0  0  0  0  0  0  0  0  0  0  0  0
   -4.8495   12.5157    0.0000 C   0  0  0  0  0  0  0  0  0  0  0  0
   -6.0630   13.3974    0.0000 C   0  0  0  0  0  0  0  0  0  0  0  0
   -7.4333   12.7872    0.0000 N   0  0  0  0  0  0  0  0  0  0  0  0
   -7.5901   11.2955    0.0000 C   0  0  0  0  0  0  0  0  0  0  0  0
   -7.9037    8.3119    0.0000 C   0  0  0  0  0  0  0  0  0  0  0  0
   -8.0605    6.8201    0.0000 C   0  0  0  0  0  0  0  0  0  0  0  0
   -0.7500    1.2990    0.0000 C   0  0  0  0  0  0  0  0  0  0  0  0
    0.7500    1.2990    0.0000 C   0  0  0  0  0  0  0  0  0  0  0  0
  1  2  1  0
  2  3  2  0
  3  4  1  0
  4  5  2  0
  5  6  1  0
  6  7  2  0
  7  8  1  0
  8  9  2  0
  9 10  1  0
 10 11  1  0
 11 12  1  0
 12 13  1  0
 13 14  1  0
 14 15  1  0
 15 16  1  0
 16 17  1  0
 17 18  2  0
 18 19  1  0
 19 20  2  0
 20 21  1  0
 21 22  1  0
 22 23  2  0
 23 24  1  0
 24 25  2  0
 25 26  1  0
 26 27  2  0
 27 28  1  0
 28 29  2  0
 29 30  1  0
 30 31  2  0
 25 32  1  0
 32 33  2  0
  5 34  1  0
 34 35  2  0
 35  2  1  0
 10  6  1  0
 16 11  1  0
 21 17  1  0
 33 22  1  0
 31 26  1  0
M  END
>  <Title>  (1359) 
idACAGgen8

$$$$

     RDKit          2D

 14 14  0  0  0  0  0  0  0  0999 V2000
    3.9271    0.0000    0.0000 C   0  0  0  0  0  0  0  0  0  0  0  0
    2.4271    0.0000    0.0000 C   0  0  0  0  0  0  0  0  0  0  0  0
    1.9635   -1.4266    0.0000 C   0  0  0  0  0  0  0  0  0  0  0  0
    0.7500   -2.3083    0.0000 C   0  0  0  0  0  0  0  0  0  0  0  0
   -0.7500   -2.3083    0.0000 C   0  0  0  0  0  0  0  0  0  0  0  0
   -1.2135   -3.7348    0.0000 O   0  0  0  0  0  0  0  0  0  0  0  0
   -1.9635   -1.4266    0.0000 C   0  0  0  0  0  0  0  0  0  0  0  0
   -3.1771   -2.3083    0.0000 C   0  0  0  0  0  0  0  0  0  0  0  0
   -2.4271    0.0000    0.0000 C   0  0  0  0  0  0  0  0  0  0  0  0
   -1.9635    1.4266    0.0000 C   0  0  0  0  0  0  0  0  0  0  0  0
   -0.7500    2.3083    0.0000 C   0  0  0  0  0  0  0  0  0  0  0  0
    0.7500    2.3083    0.0000 C   0  0  0  0  0  0  0  0  0  0  0  0
    1.9635    1.4266    0.0000 C   0  0  0  0  0  0  0  0  0  0  0  0
    3.1771    2.3083    0.0000 N   0  0  0  0  0  0  0  0  0  0  0  0
  1  2  1  0
  2  3  2  0
  3  4  1  0
  4  5  2  0
  5  6  1  0
  5  7  1  0
  7  8  1  0
  7  9  2  0
  9 10  1  0
 10 11  2  0
 11 12  1  0
 12 13  2  0
 13 14  1  0
 13  2  1  0
M  END
>  <Title>  (1360) 
idACAHgen8

$$$$

     RDKit          2D

 41 47  0  0  0  0  0  0  0  0999 V2000
   -4.8274   10.7735    0.0000 C   0  0  0  0  0  0  0  0  0  0  0  0
   -5.2909    9.3469    0.0000 C   0  0  0  0  0  0  0  0  0  0  0  0
   -4.2872    8.2322    0.0000 C   0  0  0  0  0  0  0  0  0  0  0  0
   -4.7508    6.8056    0.0000 C   0  0  0  0  0  0  0  0  0  0  0  0
   -6.2180    6.4937    0.0000 C   0  0  0  0  0  0  0  0  0  0  0  0
   -6.6815    5.0672    0.0000 C   0  0  0  0  0  0  0  0  0  0  0  0
   -8.1081    4.6036    0.0000 N   0  0  0  0  0  0  0  0  0  0  0  0
   -8.1081    3.1036    0.0000 N   0  0  0  0  0  0  0  0  0  0  0  0
   -6.6815    2.6401    0.0000 N   0  0  0  0  0  0  0  0  0  0  0  0
   -5.7998    3.8536    0.0000 N   0  0  0  0  0  0  0  0  0  0  0  0
   -4.2998    3.8536    0.0000 C   0  0  0  0  0  0  0  0  0  0  0  0
   -3.4182    2.6401    0.0000 C   0  0  0  0  0  0  0  0  0  0  0  0
   -1.9916    3.1036    0.0000 C   0  0  0  0  0  0  0  0  0  0  0  0
   -1.9916    4.6036    0.0000 C   0  0  0  0  0  0  0  0  0  0  0  0
   -0.7780    5.4853    0.0000 C   0  0  0  0  0  0  0  0  0  0  0  0
   -0.7780    6.9853    0.0000 N   0  0  0  0  0  0  0  0  0  0  0  0
    0.6485    7.4488    0.0000 N   0  0  0  0  0  0  0  0  0  0  0  0
    1.5302    6.2353    0.0000 N   0  0  0  0  0  0  0  0  0  0  0  0
    0.6485    5.0218    0.0000 N   0  0  0  0  0  0  0  0  0  0  0  0
    1.1121    3.5952    0.0000 C   0  0  0  0  0  0  0  0  0  0  0  0
    0.1084    2.4805    0.0000 C   0  0  0  0  0  0  0  0  0  0  0  0
    0.5719    1.0539    0.0000 N   0  0  0  0  0  0  0  0  0  0  0  0
    2.0391    0.7420    0.0000 N   0  0  0  0  0  0  0  0  0  0  0  0
    3.0428    1.8568    0.0000 N   0  0  0  0  0  0  0  0  0  0  0  0
    2.5793    3.2833    0.0000 N   0  0  0  0  0  0  0  0  0  0  0  0
    3.5830    4.3981    0.0000 C   0  0  0  0  0  0  0  0  0  0  0  0
    3.1195    5.8246    0.0000 C   0  0  0  0  0  0  0  0  0  0  0  0
    4.1232    6.9394    0.0000 C   0  0  0  0  0  0  0  0  0  0  0  0
    5.5904    6.6275    0.0000 C   0  0  0  0  0  0  0  0  0  0  0  0
    6.0539    5.2009    0.0000 C   0  0  0  0  0  0  0  0  0  0  0  0
    5.0502    4.0862    0.0000 C   0  0  0  0  0  0  0  0  0  0  0  0
    5.5137    2.6596    0.0000 C   0  0  0  0  0  0  0  0  0  0  0  0
    6.9810    2.3477    0.0000 C   0  0  0  0  0  0  0  0  0  0  0  0
    7.4445    0.9211    0.0000 C   0  0  0  0  0  0  0  0  0  0  0  0
    6.4408   -0.1936    0.0000 C   0  0  0  0  0  0  0  0  0  0  0  0
    4.9736    0.1183    0.0000 C   0  0  0  0  0  0  0  0  0  0  0  0
    4.5100    1.5449    0.0000 C   0  0  0  0  0  0  0  0  0  0  0  0
   -3.4182    5.0672    0.0000 C   0  0  0  0  0  0  0  0  0  0  0  0
   -3.8817    6.4937    0.0000 O   0  0  0  0  0  0  0  0  0  0  0  0
   -7.2217    7.6085    0.0000 C   0  0  0  0  0  0  0  0  0  0  0  0
   -6.7582    9.0350    0.0000 N   0  0  0  0  0  0  0  0  0  0  0  0
  1  2  1  0
  2  3  2  0
  3  4  1  0
  4  5  2  0
  5  6  1  0
  6  7  2  0
  7  8  1  0
  8  9  2  0
  9 10  1  0
 10 11  1  0
 11 12  2  0
 12 13  1  0
 13 14  2  0
 14 15  1  0
 15 16  2  0
 16 17  1  0
 17 18  2  0
 18 19  1  0
 19 20  1  0
 20 21  1  0
 21 22  1  0
 22 23  1  0
 23 24  2  0
 24 25  1  0
 25 26  1  0
 26 27  2  0
 27 28  1  0
 28 29  2  0
 29 30  1  0
 30 31  2  0
 31 32  1  0
 32 33  2  0
 33 34  1  0
 34 35  2  0
 35 36  1  0
 36 37  2  0
 14 38  1  0
 38 39  2  0
  5 40  1  0
 40 41  1  0
 41  2  1  0
 10  6  1  0
 38 11  1  0
 19 15  1  0
 25 20  1  0
 31 26  1  0
 37 32  1  0
M  END
>  <Title>  (1361) 
idACAIgen8

$$$$

     RDKit          2D

  7  7  0  0  0  0  0  0  0  0999 V2000
    3.0000    0.0000    0.0000 O   0  0  0  0  0  0  0  0  0  0  0  0
    1.5000    0.0000    0.0000 C   0  0  0  0  0  0  0  0  0  0  0  0
    0.7500   -1.2990    0.0000 C   0  0  0  0  0  0  0  0  0  0  0  0
   -0.7500   -1.2990    0.0000 C   0  0  0  0  0  0  0  0  0  0  0  0
   -1.5000    0.0000    0.0000 C   0  0  0  0  0  0  0  0  0  0  0  0
   -0.7500    1.2990    0.0000 C   0  0  0  0  0  0  0  0  0  0  0  0
    0.7500    1.2990    0.0000 C   0  0  0  0  0  0  0  0  0  0  0  0
  1  2  1  0
  2  3  2  0
  3  4  1  0
  4  5  2  0
  5  6  2  0
  6  7  1  0
  7  2  1  0
M  END
>  <Title>  (1362) 
idACAJgen8

$$$$

     RDKit          2D

  8  8  0  0  0  0  0  0  0  0999 V2000
    3.7500   -1.2990    0.0000 C   0  0  0  0  0  0  0  0  0  0  0  0
    3.0000    0.0000    0.0000 O   0  0  0  0  0  0  0  0  0  0  0  0
    1.5000    0.0000    0.0000 C   0  0  0  0  0  0  0  0  0  0  0  0
    0.7500   -1.2990    0.0000 C   0  0  0  0  0  0  0  0  0  0  0  0
   -0.7500   -1.2990    0.0000 C   0  0  0  0  0  0  0  0  0  0  0  0
   -1.5000    0.0000    0.0000 C   0  0  0  0  0  0  0  0  0  0  0  0
   -0.7500    1.2990    0.0000 C   0  0  0  0  0  0  0  0  0  0  0  0
    0.7500    1.2990    0.0000 C   0  0  0  0  0  0  0  0  0  0  0  0
  1  2  1  0
  2  3  1  0
  3  4  2  0
  4  5  1  0
  5  6  2  0
  6  7  1  0
  7  8  2  0
  8  3  1  0
M  END
>  <Title>  (1363) 
idACAKgen8

$$$$

     RDKit          2D

 35 39  0  0  0  0  0  0  0  0999 V2000
    3.0000    0.0000    0.0000 C   0  0  0  0  0  0  0  0  0  0  0  0
    1.5000    0.0000    0.0000 C   0  0  0  0  0  0  0  0  0  0  0  0
    0.7500   -1.2990    0.0000 C   0  0  0  0  0  0  0  0  0  0  0  0
   -0.7500   -1.2990    0.0000 C   0  0  0  0  0  0  0  0  0  0  0  0
   -1.5000    0.0000    0.0000 C   0  0  0  0  0  0  0  0  0  0  0  0
   -3.0000    0.0000    0.0000 C   0  0  0  0  0  0  0  0  0  0  0  0
   -3.7500   -1.2990    0.0000 O   0  0  0  0  0  0  0  0  0  0  0  0
   -3.7500    1.2990    0.0000 N   0  0  0  0  0  0  0  0  0  0  0  0
   -5.2500    1.2990    0.0000 C   0  0  0  0  0  0  0  0  0  0  0  0
   -6.1317    0.0855    0.0000 N   0  0  0  0  0  0  0  0  0  0  0  0
   -7.5583    0.5490    0.0000 N   0  0  0  0  0  0  0  0  0  0  0  0
   -7.5583    2.0490    0.0000 N   0  0  0  0  0  0  0  0  0  0  0  0
   -6.1317    2.5126    0.0000 N   0  0  0  0  0  0  0  0  0  0  0  0
   -5.6682    3.9391    0.0000 C   0  0  0  0  0  0  0  0  0  0  0  0
   -4.2009    4.2510    0.0000 C   0  0  0  0  0  0  0  0  0  0  0  0
   -3.7374    5.6776    0.0000 C   0  0  0  0  0  0  0  0  0  0  0  0
   -4.7411    6.7923    0.0000 C   0  0  0  0  0  0  0  0  0  0  0  0
   -4.2776    8.2189    0.0000 C   0  0  0  0  0  0  0  0  0  0  0  0
   -5.2813    9.3336    0.0000 O   0  0  0  0  0  0  0  0  0  0  0  0
   -2.8104    8.5308    0.0000 N   0  0  0  0  0  0  0  0  0  0  0  0
   -2.3468    9.9574    0.0000 C   0  0  0  0  0  0  0  0  0  0  0  0
   -3.2285   11.1709    0.0000 N   0  0  0  0  0  0  0  0  0  0  0  0
   -2.3468   12.3844    0.0000 N   0  0  0  0  0  0  0  0  0  0  0  0
   -0.9202   11.9209    0.0000 N   0  0  0  0  0  0  0  0  0  0  0  0
   -0.9202   10.4209    0.0000 N   0  0  0  0  0  0  0  0  0  0  0  0
    0.2933    9.5392    0.0000 C   0  0  0  0  0  0  0  0  0  0  0  0
    0.1365    8.0474    0.0000 C   0  0  0  0  0  0  0  0  0  0  0  0
    1.3500    7.1657    0.0000 C   0  0  0  0  0  0  0  0  0  0  0  0
    2.7203    7.7758    0.0000 C   0  0  0  0  0  0  0  0  0  0  0  0
    2.8771    9.2676    0.0000 C   0  0  0  0  0  0  0  0  0  0  0  0
    1.6636   10.1493    0.0000 C   0  0  0  0  0  0  0  0  0  0  0  0
   -6.2083    6.4805    0.0000 C   0  0  0  0  0  0  0  0  0  0  0  0
   -6.6718    5.0539    0.0000 C   0  0  0  0  0  0  0  0  0  0  0  0
   -0.7500    1.2990    0.0000 C   0  0  0  0  0  0  0  0  0  0  0  0
    0.7500    1.2990    0.0000 C   0  0  0  0  0  0  0  0  0  0  0  0
  1  2  1  0
  2  3  2  0
  3  4  1  0
  4  5  2  0
  5  6  1  0
  6  7  2  0
  6  8  1  0
  8  9  1  0
  9 10  2  0
 10 11  1  0
 11 12  2  0
 12 13  1  0
 13 14  1  0
 14 15  2  0
 15 16  1  0
 16 17  2  0
 17 18  1  0
 18 19  2  0
 18 20  1  0
 20 21  1  0
 21 22  2  0
 22 23  1  0
 23 24  2  0
 24 25  1  0
 25 26  1  0
 26 27  2  0
 27 28  1  0
 28 29  2  0
 29 30  1  0
 30 31  2  0
 17 32  1  0
 32 33  2  0
  5 34  1  0
 34 35  2  0
 35  2  1  0
 13  9  1  0
 33 14  1  0
 25 21  1  0
 31 26  1  0
M  END
>  <Title>  (1364) 
idACALgen8

$$$$

     RDKit          2D

 33 35  0  0  0  0  0  0  0  0999 V2000
   -4.3031    6.2286    0.0000 C   0  0  0  0  0  0  0  0  0  0  0  0
   -3.4257    7.4452    0.0000 C   0  0  0  0  0  0  0  0  0  0  0  0
   -4.4604    8.5313    0.0000 C   0  0  0  0  0  0  0  0  0  0  0  0
   -5.0329    9.9177    0.0000 C   0  0  0  0  0  0  0  0  0  0  0  0
   -5.0659   11.4173    0.0000 C   0  0  0  0  0  0  0  0  0  0  0  0
   -4.5549   12.8276    0.0000 C   0  0  0  0  0  0  0  0  0  0  0  0
   -3.5690   13.9581    0.0000 C   0  0  0  0  0  0  0  0  0  0  0  0
   -2.2413   14.6561    0.0000 C   0  0  0  0  0  0  0  0  0  0  0  0
   -0.7511   14.8273    0.0000 C   0  0  0  0  0  0  0  0  0  0  0  0
    0.7003   14.4487    0.0000 C   0  0  0  0  0  0  0  0  0  0  0  0
    1.9169   13.5713    0.0000 C   0  0  0  0  0  0  0  0  0  0  0  0
    2.7344   12.3136    0.0000 C   0  0  0  0  0  0  0  0  0  0  0  0
    3.0424   10.8456    0.0000 C   0  0  0  0  0  0  0  0  0  0  0  0
    2.7993    9.3654    0.0000 C   0  0  0  0  0  0  0  0  0  0  0  0
    2.0379    8.0730    0.0000 C   0  0  0  0  0  0  0  0  0  0  0  0
    0.8610    7.1430    0.0000 C   0  0  0  0  0  0  0  0  0  0  0  0
    2.3234    6.8092    0.0000 C   0  0  0  0  0  0  0  0  0  0  0  0
    3.4230    5.7889    0.0000 C   0  0  0  0  0  0  0  0  0  0  0  0
    3.8651    4.3556    0.0000 C   0  0  0  0  0  0  0  0  0  0  0  0
    3.5314    2.8932    0.0000 C   0  0  0  0  0  0  0  0  0  0  0  0
    2.5111    1.7936    0.0000 C   0  0  0  0  0  0  0  0  0  0  0  0
    1.0777    1.3515    0.0000 C   0  0  0  0  0  0  0  0  0  0  0  0
    1.7286    0.0000    0.0000 C   0  0  0  0  0  0  0  0  0  0  0  0
    1.0777   -1.3515    0.0000 C   0  0  0  0  0  0  0  0  0  0  0  0
   -0.3846   -1.6852    0.0000 C   0  0  0  0  0  0  0  0  0  0  0  0
   -1.5574   -0.7500    0.0000 C   0  0  0  0  0  0  0  0  0  0  0  0
   -1.5574    0.7500    0.0000 C   0  0  0  0  0  0  0  0  0  0  0  0
   -0.3846    1.6852    0.0000 C   0  0  0  0  0  0  0  0  0  0  0  0
   -1.4842    2.7055    0.0000 C   0  0  0  0  0  0  0  0  0  0  0  0
   -1.9264    4.1389    0.0000 C   0  0  0  0  0  0  0  0  0  0  0  0
   -1.5926    5.6012    0.0000 N   0  0  0  0  0  0  0  0  0  0  0  0
   -0.5723    6.7008    0.0000 C   0  0  0  0  0  0  0  0  0  0  0  0
   -2.0686    6.8063    0.0000 N   0  0  0  0  0  0  0  0  0  0  0  0
  1  2  1  0
  2  3  2  0
  3  4  1  0
  4  5  2  0
  5  6  2  0
  6  7  1  0
  7  8  2  0
  8  9  1  0
  9 10  2  0
 10 11  1  0
 11 12  2  0
 12 13  1  0
 13 14  2  0
 14 15  1  0
 15 16  2  0
 16 17  1  0
 17 18  2  0
 18 19  1  0
 19 20  2  0
 20 21  1  0
 21 22  2  0
 22 23  1  0
 23 24  2  0
 24 25  1  0
 25 26  2  0
 26 27  1  0
 27 28  2  0
 28 29  1  0
 29 30  2  0
 30 31  1  0
 31 32  2  0
 32 33  1  0
 33  2  1  0
 32 16  1  0
 28 22  1  0
M  END
>  <Title>  (1365) 
idACAMgen8

$$$$

     RDKit          2D

 34 35  0  0  0  0  0  0  0  0999 V2000
   -4.3277   -0.7172    0.0000 C   0  0  0  0  0  0  0  0  0  0  0  0
   -4.0159    0.7500    0.0000 C   0  0  0  0  0  0  0  0  0  0  0  0
   -5.4424    1.2135    0.0000 C   0  0  0  0  0  0  0  0  0  0  0  0
   -6.7415    1.9635    0.0000 C   0  0  0  0  0  0  0  0  0  0  0  0
   -7.8562    2.9672    0.0000 C   0  0  0  0  0  0  0  0  0  0  0  0
   -8.7379    4.1807    0.0000 C   0  0  0  0  0  0  0  0  0  0  0  0
   -9.3480    5.5511    0.0000 C   0  0  0  0  0  0  0  0  0  0  0  0
   -9.6598    7.0183    0.0000 C   0  0  0  0  0  0  0  0  0  0  0  0
   -9.6598    8.5183    0.0000 C   0  0  0  0  0  0  0  0  0  0  0  0
   -9.3480    9.9855    0.0000 C   0  0  0  0  0  0  0  0  0  0  0  0
   -8.7379   11.3558    0.0000 C   0  0  0  0  0  0  0  0  0  0  0  0
   -7.8562   12.5694    0.0000 C   0  0  0  0  0  0  0  0  0  0  0  0
   -6.7415   13.5730    0.0000 C   0  0  0  0  0  0  0  0  0  0  0  0
   -5.4424   14.3230    0.0000 C   0  0  0  0  0  0  0  0  0  0  0  0
   -4.0159   14.7866    0.0000 C   0  0  0  0  0  0  0  0  0  0  0  0
   -2.5241   14.9434    0.0000 C   0  0  0  0  0  0  0  0  0  0  0  0
   -1.0323   14.7866    0.0000 C   0  0  0  0  0  0  0  0  0  0  0  0
    0.3943   14.3230    0.0000 C   0  0  0  0  0  0  0  0  0  0  0  0
    1.6933   13.5730    0.0000 C   0  0  0  0  0  0  0  0  0  0  0  0
    2.8081   12.5694    0.0000 C   0  0  0  0  0  0  0  0  0  0  0  0
    3.6897   11.3558    0.0000 C   0  0  0  0  0  0  0  0  0  0  0  0
    4.2998    9.9855    0.0000 C   0  0  0  0  0  0  0  0  0  0  0  0
    4.6117    8.5183    0.0000 C   0  0  0  0  0  0  0  0  0  0  0  0
    4.6117    7.0183    0.0000 C   0  0  0  0  0  0  0  0  0  0  0  0
    4.2998    5.5511    0.0000 C   0  0  0  0  0  0  0  0  0  0  0  0
    3.6897    4.1807    0.0000 C   0  0  0  0  0  0  0  0  0  0  0  0
    2.8081    2.9672    0.0000 C   0  0  0  0  0  0  0  0  0  0  0  0
    1.6933    1.9635    0.0000 C   0  0  0  0  0  0  0  0  0  0  0  0
    0.3943    1.2135    0.0000 C   0  0  0  0  0  0  0  0  0  0  0  0
    1.2760    0.0000    0.0000 C   0  0  0  0  0  0  0  0  0  0  0  0
    0.3943   -1.2135    0.0000 C   0  0  0  0  0  0  0  0  0  0  0  0
   -1.0323   -0.7500    0.0000 C   0  0  0  0  0  0  0  0  0  0  0  0
   -1.0323    0.7500    0.0000 C   0  0  0  0  0  0  0  0  0  0  0  0
   -2.5241    0.5932    0.0000 N   0  0  0  0  0  0  0  0  0  0  0  0
  1  2  1  0
  2  3  2  0
  3  4  1  0
  4  5  2  0
  5  6  1  0
  6  7  2  0
  7  8  1  0
  8  9  2  0
  9 10  1  0
 10 11  2  0
 11 12  1  0
 12 13  2  0
 13 14  1  0
 14 15  2  0
 15 16  1  0
 16 17  2  0
 17 18  1  0
 18 19  2  0
 19 20  1  0
 20 21  2  0
 21 22  1  0
 22 23  2  0
 23 24  1  0
 24 25  2  0
 25 26  1  0
 26 27  2  0
 27 28  1  0
 28 29  2  0
 29 30  1  0
 30 31  2  0
 31 32  1  0
 32 33  2  0
 33 34  1  0
 34  2  1  0
 33 29  1  0
M  END
>  <Title>  (1366) 
idACANgen8

$$$$

     RDKit          2D

 49 56  0  0  0  0  0  0  0  0999 V2000
    0.2063   -3.1599    0.0000 C   0  0  0  0  0  0  0  0  0  0  0  0
    0.8773   -1.8183    0.0000 O   0  0  0  0  0  0  0  0  0  0  0  0
    0.0510   -0.5665    0.0000 C   0  0  0  0  0  0  0  0  0  0  0  0
    0.5780    0.8379    0.0000 C   0  0  0  0  0  0  0  0  0  0  0  0
   -0.5947    1.7731    0.0000 C   0  0  0  0  0  0  0  0  0  0  0  0
   -1.8466    0.9468    0.0000 C   0  0  0  0  0  0  0  0  0  0  0  0
   -3.2509    1.4739    0.0000 C   0  0  0  0  0  0  0  0  0  0  0  0
   -4.3351    0.4373    0.0000 C   0  0  0  0  0  0  0  0  0  0  0  0
   -5.8215    0.6386    0.0000 C   0  0  0  0  0  0  0  0  0  0  0  0
   -6.5909    1.9263    0.0000 N   0  0  0  0  0  0  0  0  0  0  0  0
   -6.0638    3.3306    0.0000 N   0  0  0  0  0  0  0  0  0  0  0  0
   -4.6372    3.7942    0.0000 N   0  0  0  0  0  0  0  0  0  0  0  0
   -3.3854    2.9678    0.0000 N   0  0  0  0  0  0  0  0  0  0  0  0
   -2.0977    3.7372    0.0000 C   0  0  0  0  0  0  0  0  0  0  0  0
   -0.7184    3.1476    0.0000 C   0  0  0  0  0  0  0  0  0  0  0  0
    0.2685    4.2772    0.0000 C   0  0  0  0  0  0  0  0  0  0  0  0
   -0.5009    5.5649    0.0000 C   0  0  0  0  0  0  0  0  0  0  0  0
    0.0887    6.9442    0.0000 C   0  0  0  0  0  0  0  0  0  0  0  0
   -0.6807    8.2319    0.0000 N   0  0  0  0  0  0  0  0  0  0  0  0
    0.3062    9.3615    0.0000 N   0  0  0  0  0  0  0  0  0  0  0  0
    1.6855    8.7719    0.0000 N   0  0  0  0  0  0  0  0  0  0  0  0
    1.5511    7.2780    0.0000 N   0  0  0  0  0  0  0  0  0  0  0  0
    2.6807    6.2911    0.0000 C   0  0  0  0  0  0  0  0  0  0  0  0
    2.3908    4.8193    0.0000 C   0  0  0  0  0  0  0  0  0  0  0  0
    3.5204    3.8324    0.0000 C   0  0  0  0  0  0  0  0  0  0  0  0
    4.9399    4.3173    0.0000 N   0  0  0  0  0  0  0  0  0  0  0  0
    5.2298    5.7890    0.0000 N   0  0  0  0  0  0  0  0  0  0  0  0
    4.1002    6.7759    0.0000 C   0  0  0  0  0  0  0  0  0  0  0  0
    4.3900    8.2476    0.0000 C   0  0  0  0  0  0  0  0  0  0  0  0
    3.2604    9.2345    0.0000 C   0  0  0  0  0  0  0  0  0  0  0  0
    3.5503   10.7062    0.0000 C   0  0  0  0  0  0  0  0  0  0  0  0
    4.9698   11.1911    0.0000 C   0  0  0  0  0  0  0  0  0  0  0  0
    6.0994   10.2041    0.0000 C   0  0  0  0  0  0  0  0  0  0  0  0
    5.8095    8.7324    0.0000 C   0  0  0  0  0  0  0  0  0  0  0  0
    6.9391    7.7455    0.0000 N   0  0  0  0  0  0  0  0  0  0  0  0
    6.6493    6.2738    0.0000 N   0  0  0  0  0  0  0  0  0  0  0  0
    7.7789    5.2869    0.0000 N   0  0  0  0  0  0  0  0  0  0  0  0
    9.1984    5.7717    0.0000 N   0  0  0  0  0  0  0  0  0  0  0  0
    9.4882    7.2434    0.0000 N   0  0  0  0  0  0  0  0  0  0  0  0
    8.3586    8.2303    0.0000 N   0  0  0  0  0  0  0  0  0  0  0  0
    8.6485    9.7021    0.0000 C   0  0  0  0  0  0  0  0  0  0  0  0
   10.0680   10.1869    0.0000 C   0  0  0  0  0  0  0  0  0  0  0  0
   10.3579   11.6586    0.0000 C   0  0  0  0  0  0  0  0  0  0  0  0
    9.2283   12.6455    0.0000 C   0  0  0  0  0  0  0  0  0  0  0  0
    7.8088   12.1607    0.0000 C   0  0  0  0  0  0  0  0  0  0  0  0
    7.5189   10.6890    0.0000 C   0  0  0  0  0  0  0  0  0  0  0  0
   -1.9633    5.2311    0.0000 C   0  0  0  0  0  0  0  0  0  0  0  0
   -3.0929    6.2180    0.0000 O   0  0  0  0  0  0  0  0  0  0  0  0
   -1.4475   -0.4992    0.0000 N   0  0  0  0  0  0  0  0  0  0  0  0
  1  2  1  0
  2  3  1  0
  3  4  2  0
  4  5  1  0
  5  6  2  0
  6  7  1  0
  7  8  2  0
  8  9  1  0
  9 10  2  0
 10 11  1  0
 11 12  2  0
 12 13  1  0
 13 14  1  0
 14 15  2  0
 15 16  1  0
 16 17  2  0
 17 18  1  0
 18 19  2  0
 19 20  1  0
 20 21  2  0
 21 22  1  0
 22 23  1  0
 23 24  2  0
 24 25  1  0
 25 26  2  0
 26 27  1  0
 27 28  2  0
 28 29  1  0
 29 30  2  0
 30 31  1  0
 31 32  2  0
 32 33  1  0
 33 34  2  0
 34 35  1  0
 35 36  1  0
 36 37  2  0
 37 38  1  0
 38 39  2  0
 39 40  1  0
 40 41  1  0
 41 42  2  0
 42 43  1  0
 43 44  2  0
 44 45  1  0
 45 46  2  0
 17 47  1  0
 47 48  2  0
  6 49  1  0
 49  3  1  0
 13  7  1  0
 47 14  1  0
 22 18  1  0
 28 23  1  0
 34 29  1  0
 40 35  1  0
 46 41  1  0
M  END
>  <Title>  (1367) 
idACAOgen8

$$$$

     RDKit          2D

 38 43  0  0  0  0  0  0  0  0999 V2000
    3.0000    0.0000    0.0000 C   0  0  0  0  0  0  0  0  0  0  0  0
    1.5000    0.0000    0.0000 C   0  0  0  0  0  0  0  0  0  0  0  0
    0.7500   -1.2990    0.0000 C   0  0  0  0  0  0  0  0  0  0  0  0
   -0.7500   -1.2990    0.0000 C   0  0  0  0  0  0  0  0  0  0  0  0
   -1.5000    0.0000    0.0000 C   0  0  0  0  0  0  0  0  0  0  0  0
   -3.0000    0.0000    0.0000 C   0  0  0  0  0  0  0  0  0  0  0  0
   -3.7500    1.2990    0.0000 C   0  0  0  0  0  0  0  0  0  0  0  0
   -3.0000    2.5981    0.0000 N   0  0  0  0  0  0  0  0  0  0  0  0
   -3.7500    3.8971    0.0000 N   0  0  0  0  0  0  0  0  0  0  0  0
   -5.2500    3.8971    0.0000 N   0  0  0  0  0  0  0  0  0  0  0  0
   -6.0000    2.5981    0.0000 N   0  0  0  0  0  0  0  0  0  0  0  0
   -5.2500    1.2990    0.0000 N   0  0  0  0  0  0  0  0  0  0  0  0
   -6.0000    0.0000    0.0000 C   0  0  0  0  0  0  0  0  0  0  0  0
   -5.3899   -1.3703    0.0000 C   0  0  0  0  0  0  0  0  0  0  0  0
   -6.5046   -2.3740    0.0000 C   0  0  0  0  0  0  0  0  0  0  0  0
   -7.8037   -1.6240    0.0000 C   0  0  0  0  0  0  0  0  0  0  0  0
   -9.1740   -2.2341    0.0000 C   0  0  0  0  0  0  0  0  0  0  0  0
   -9.4858   -3.7013    0.0000 N   0  0  0  0  0  0  0  0  0  0  0  0
  -10.9776   -3.8581    0.0000 N   0  0  0  0  0  0  0  0  0  0  0  0
  -11.5877   -2.4878    0.0000 N   0  0  0  0  0  0  0  0  0  0  0  0
  -10.4730   -1.4841    0.0000 N   0  0  0  0  0  0  0  0  0  0  0  0
  -10.6298    0.0077    0.0000 C   0  0  0  0  0  0  0  0  0  0  0  0
   -9.5151    1.0114    0.0000 N   0  0  0  0  0  0  0  0  0  0  0  0
  -10.1252    2.3817    0.0000 N   0  0  0  0  0  0  0  0  0  0  0  0
  -11.6170    2.2249    0.0000 N   0  0  0  0  0  0  0  0  0  0  0  0
  -11.9288    0.7577    0.0000 N   0  0  0  0  0  0  0  0  0  0  0  0
  -13.2992    0.1476    0.0000 C   0  0  0  0  0  0  0  0  0  0  0  0
  -14.5127    1.0292    0.0000 C   0  0  0  0  0  0  0  0  0  0  0  0
  -15.8830    0.4191    0.0000 C   0  0  0  0  0  0  0  0  0  0  0  0
  -16.0398   -1.0727    0.0000 C   0  0  0  0  0  0  0  0  0  0  0  0
  -17.4101   -1.6828    0.0000 C   0  0  0  0  0  0  0  0  0  0  0  0
  -14.8263   -1.9543    0.0000 C   0  0  0  0  0  0  0  0  0  0  0  0
  -13.4559   -1.3442    0.0000 C   0  0  0  0  0  0  0  0  0  0  0  0
   -7.4918   -0.1568    0.0000 C   0  0  0  0  0  0  0  0  0  0  0  0
   -8.4955    0.9579    0.0000 O   0  0  0  0  0  0  0  0  0  0  0  0
   -0.7500    1.2990    0.0000 C   0  0  0  0  0  0  0  0  0  0  0  0
   -1.5000    2.5981    0.0000 O   0  0  0  0  0  0  0  0  0  0  0  0
    0.7500    1.2990    0.0000 N   0  0  0  0  0  0  0  0  0  0  0  0
  1  2  1  0
  2  3  2  0
  3  4  1  0
  4  5  2  0
  5  6  1  0
  6  7  2  3
  7  8  1  0
  8  9  2  0
  9 10  1  0
 10 11  2  0
 11 12  1  0
 12 13  1  0
 13 14  2  0
 14 15  1  0
 15 16  2  0
 16 17  1  0
 17 18  2  0
 18 19  1  0
 19 20  2  0
 20 21  1  0
 21 22  1  0
 22 23  2  0
 23 24  1  0
 24 25  2  0
 25 26  1  0
 26 27  1  0
 27 28  1  0
 28 29  1  0
 29 30  1  0
 30 31  1  0
 30 32  1  0
 32 33  1  0
 16 34  1  0
 34 35  2  0
  5 36  1  0
 36 37  2  0
 36 38  1  0
 38  2  1  0
 12  7  1  0
 34 13  1  0
 21 17  1  0
 26 22  1  0
 33 27  1  0
M  END
>  <Title>  (1368) 
idACAPgen8

$$$$

     RDKit          2D

 59 67  0  0  0  0  0  0  0  0999 V2000
    3.0000    0.0000    0.0000 C   0  0  0  0  0  0  0  0  0  0  0  0
    1.5000    0.0000    0.0000 C   0  0  0  0  0  0  0  0  0  0  0  0
    0.7500   -1.2990    0.0000 C   0  0  0  0  0  0  0  0  0  0  0  0
   -0.7500   -1.2990    0.0000 C   0  0  0  0  0  0  0  0  0  0  0  0
   -1.5000    0.0000    0.0000 C   0  0  0  0  0  0  0  0  0  0  0  0
   -3.0000    0.0000    0.0000 C   0  0  0  0  0  0  0  0  0  0  0  0
   -3.8817   -1.2135    0.0000 N   0  0  0  0  0  0  0  0  0  0  0  0
   -5.3083   -0.7500    0.0000 N   0  0  0  0  0  0  0  0  0  0  0  0
   -5.3083    0.7500    0.0000 N   0  0  0  0  0  0  0  0  0  0  0  0
   -3.8817    1.2135    0.0000 N   0  0  0  0  0  0  0  0  0  0  0  0
   -3.4182    2.6401    0.0000 C   0  0  0  0  0  0  0  0  0  0  0  0
   -1.9509    2.9520    0.0000 C   0  0  0  0  0  0  0  0  0  0  0  0
   -1.4874    4.3786    0.0000 C   0  0  0  0  0  0  0  0  0  0  0  0
   -2.4911    5.4933    0.0000 C   0  0  0  0  0  0  0  0  0  0  0  0
   -2.0276    6.9199    0.0000 C   0  0  0  0  0  0  0  0  0  0  0  0
   -3.0313    8.0346    0.0000 O   0  0  0  0  0  0  0  0  0  0  0  0
   -0.5604    7.2317    0.0000 N   0  0  0  0  0  0  0  0  0  0  0  0
   -0.0968    8.6583    0.0000 C   0  0  0  0  0  0  0  0  0  0  0  0
   -0.9785    9.8718    0.0000 N   0  0  0  0  0  0  0  0  0  0  0  0
   -0.0968   11.0854    0.0000 N   0  0  0  0  0  0  0  0  0  0  0  0
    1.3298   10.6218    0.0000 N   0  0  0  0  0  0  0  0  0  0  0  0
    1.3298    9.1218    0.0000 N   0  0  0  0  0  0  0  0  0  0  0  0
    2.5433    8.2402    0.0000 C   0  0  0  0  0  0  0  0  0  0  0  0
    2.3865    6.7484    0.0000 C   0  0  0  0  0  0  0  0  0  0  0  0
    3.6000    5.8667    0.0000 C   0  0  0  0  0  0  0  0  0  0  0  0
    4.9703    6.4768    0.0000 C   0  0  0  0  0  0  0  0  0  0  0  0
    5.1271    7.9686    0.0000 C   0  0  0  0  0  0  0  0  0  0  0  0
    3.9136    8.8503    0.0000 C   0  0  0  0  0  0  0  0  0  0  0  0
   -3.9583    5.1814    0.0000 C   0  0  0  0  0  0  0  0  0  0  0  0
   -4.4218    3.7548    0.0000 C   0  0  0  0  0  0  0  0  0  0  0  0
   -5.8891    3.4430    0.0000 C   0  0  0  0  0  0  0  0  0  0  0  0
   -6.8928    4.5577    0.0000 C   0  0  0  0  0  0  0  0  0  0  0  0
   -8.3600    4.2458    0.0000 C   0  0  0  0  0  0  0  0  0  0  0  0
   -8.8235    2.8192    0.0000 C   0  0  0  0  0  0  0  0  0  0  0  0
  -10.2907    2.5074    0.0000 C   0  0  0  0  0  0  0  0  0  0  0  0
  -10.7543    1.0808    0.0000 O   0  0  0  0  0  0  0  0  0  0  0  0
  -11.2944    3.6221    0.0000 N   0  0  0  0  0  0  0  0  0  0  0  0
  -12.7617    3.3102    0.0000 C   0  0  0  0  0  0  0  0  0  0  0  0
  -13.2252    1.8836    0.0000 C   0  0  0  0  0  0  0  0  0  0  0  0
  -14.6924    1.5718    0.0000 N   0  0  0  0  0  0  0  0  0  0  0  0
  -15.6961    2.6865    0.0000 C   0  0  0  0  0  0  0  0  0  0  0  0
  -15.2326    4.1131    0.0000 C   0  0  0  0  0  0  0  0  0  0  0  0
  -13.7653    4.4249    0.0000 N   0  0  0  0  0  0  0  0  0  0  0  0
  -13.3018    5.8515    0.0000 C   0  0  0  0  0  0  0  0  0  0  0  0
  -11.8346    6.1634    0.0000 C   0  0  0  0  0  0  0  0  0  0  0  0
  -11.3711    7.5900    0.0000 C   0  0  0  0  0  0  0  0  0  0  0  0
  -12.3748    8.7047    0.0000 C   0  0  0  0  0  0  0  0  0  0  0  0
  -13.8420    8.3928    0.0000 C   0  0  0  0  0  0  0  0  0  0  0  0
  -14.3055    6.9662    0.0000 C   0  0  0  0  0  0  0  0  0  0  0  0
  -15.7727    6.6544    0.0000 C   0  0  0  0  0  0  0  0  0  0  0  0
  -16.7764    7.7691    0.0000 C   0  0  0  0  0  0  0  0  0  0  0  0
  -18.2437    7.4572    0.0000 C   0  0  0  0  0  0  0  0  0  0  0  0
  -18.7072    6.0306    0.0000 C   0  0  0  0  0  0  0  0  0  0  0  0
  -17.7035    4.9159    0.0000 C   0  0  0  0  0  0  0  0  0  0  0  0
  -16.2363    5.2278    0.0000 C   0  0  0  0  0  0  0  0  0  0  0  0
   -7.8198    1.7045    0.0000 C   0  0  0  0  0  0  0  0  0  0  0  0
   -6.3526    2.0164    0.0000 C   0  0  0  0  0  0  0  0  0  0  0  0
   -0.7500    1.2990    0.0000 C   0  0  0  0  0  0  0  0  0  0  0  0
    0.7500    1.2990    0.0000 C   0  0  0  0  0  0  0  0  0  0  0  0
  1  2  1  0
  2  3  2  0
  3  4  1  0
  4  5  2  0
  5  6  1  0
  6  7  2  0
  7  8  1  0
  8  9  2  0
  9 10  1  0
 10 11  1  0
 11 12  2  0
 12 13  1  0
 13 14  2  0
 14 15  1  0
 15 16  2  0
 15 17  1  0
 17 18  1  0
 18 19  2  0
 19 20  1  0
 20 21  2  0
 21 22  1  0
 22 23  1  0
 23 24  2  0
 24 25  1  0
 25 26  2  0
 26 27  1  0
 27 28  2  0
 14 29  1  0
 29 30  2  0
 30 31  1  0
 31 32  2  0
 32 33  1  0
 33 34  2  0
 34 35  1  0
 35 36  2  0
 35 37  1  0
 37 38  1  0
 38 39  1  0
 39 40  1  0
 40 41  1  0
 41 42  2  0
 42 43  1  0
 43 44  1  0
 44 45  2  0
 45 46  1  0
 46 47  2  0
 47 48  1  0
 48 49  2  0
 49 50  1  0
 50 51  2  0
 51 52  1  0
 52 53  2  0
 53 54  1  0
 54 55  2  0
 34 56  1  0
 56 57  2  0
  5 58  1  0
 58 59  2  0
 59  2  1  0
 10  6  1  0
 30 11  1  0
 57 31  1  0
 22 18  1  0
 28 23  1  0
 43 38  1  0
 49 44  1  0
 55 50  1  0
M  END
>  <Title>  (1369) 
idACAQgen8

$$$$

     RDKit          2D

 25 25  0  0  0  0  0  0  0  0999 V2000
    7.2460    0.0000    0.0000 O   0  0  0  0  0  0  0  0  0  0  0  0
    5.7460    0.0000    0.0000 C   0  0  0  0  0  0  0  0  0  0  0  0
    5.5502   -1.4872    0.0000 C   0  0  0  0  0  0  0  0  0  0  0  0
    4.9762   -2.8730    0.0000 C   0  0  0  0  0  0  0  0  0  0  0  0
    4.0630   -4.0630    0.0000 C   0  0  0  0  0  0  0  0  0  0  0  0
    2.8730   -4.9762    0.0000 C   0  0  0  0  0  0  0  0  0  0  0  0
    1.4872   -5.5502    0.0000 C   0  0  0  0  0  0  0  0  0  0  0  0
   -0.0000   -5.7460    0.0000 C   0  0  0  0  0  0  0  0  0  0  0  0
   -1.4872   -5.5502    0.0000 C   0  0  0  0  0  0  0  0  0  0  0  0
   -2.8730   -4.9762    0.0000 C   0  0  0  0  0  0  0  0  0  0  0  0
   -4.0630   -4.0630    0.0000 C   0  0  0  0  0  0  0  0  0  0  0  0
   -4.9762   -2.8730    0.0000 C   0  0  0  0  0  0  0  0  0  0  0  0
   -5.5502   -1.4872    0.0000 C   0  0  0  0  0  0  0  0  0  0  0  0
   -5.7460    0.0000    0.0000 C   0  0  0  0  0  0  0  0  0  0  0  0
   -5.5502    1.4872    0.0000 C   0  0  0  0  0  0  0  0  0  0  0  0
   -4.9762    2.8730    0.0000 C   0  0  0  0  0  0  0  0  0  0  0  0
   -4.0630    4.0630    0.0000 C   0  0  0  0  0  0  0  0  0  0  0  0
   -2.8730    4.9762    0.0000 C   0  0  0  0  0  0  0  0  0  0  0  0
   -1.4872    5.5502    0.0000 C   0  0  0  0  0  0  0  0  0  0  0  0
    0.0000    5.7460    0.0000 C   0  0  0  0  0  0  0  0  0  0  0  0
    1.4872    5.5502    0.0000 C   0  0  0  0  0  0  0  0  0  0  0  0
    2.8730    4.9762    0.0000 C   0  0  0  0  0  0  0  0  0  0  0  0
    4.0630    4.0630    0.0000 C   0  0  0  0  0  0  0  0  0  0  0  0
    4.9762    2.8730    0.0000 C   0  0  0  0  0  0  0  0  0  0  0  0
    5.5502    1.4872    0.0000 C   0  0  0  0  0  0  0  0  0  0  0  0
  1  2  1  0
  2  3  2  0
  3  4  1  0
  4  5  2  0
  5  6  1  0
  6  7  2  0
  7  8  1  0
  8  9  2  0
  9 10  1  0
 10 11  2  0
 11 12  1  0
 12 13  2  0
 13 14  1  0
 14 15  2  0
 15 16  1  0
 16 17  2  0
 17 18  1  0
 18 19  2  0
 19 20  1  0
 20 21  2  0
 21 22  1  0
 22 23  2  0
 23 24  1  0
 24 25  2  0
 25  2  1  0
M  END
>  <Title>  (1370) 
idACARgen8

$$$$

     RDKit          2D

 17 17  0  0  0  0  0  0  0  0999 V2000
    6.6478   -1.2990    0.0000 C   0  0  0  0  0  0  0  0  0  0  0  0
    5.1478   -1.2990    0.0000 C   0  0  0  0  0  0  0  0  0  0  0  0
    4.3978   -2.5981    0.0000 O   0  0  0  0  0  0  0  0  0  0  0  0
    4.3978    0.0000    0.0000 O   0  0  0  0  0  0  0  0  0  0  0  0
    2.8978    0.0000    0.0000 C   0  0  0  0  0  0  0  0  0  0  0  0
    2.5095   -1.4489    0.0000 C   0  0  0  0  0  0  0  0  0  0  0  0
    1.4489   -2.5095    0.0000 C   0  0  0  0  0  0  0  0  0  0  0  0
   -0.0000   -2.8978    0.0000 C   0  0  0  0  0  0  0  0  0  0  0  0
   -1.4489   -2.5095    0.0000 C   0  0  0  0  0  0  0  0  0  0  0  0
   -2.5095   -1.4489    0.0000 C   0  0  0  0  0  0  0  0  0  0  0  0
   -2.8978    0.0000    0.0000 C   0  0  0  0  0  0  0  0  0  0  0  0
   -2.5095    1.4489    0.0000 C   0  0  0  0  0  0  0  0  0  0  0  0
   -1.4489    2.5095    0.0000 C   0  0  0  0  0  0  0  0  0  0  0  0
    0.0000    2.8978    0.0000 C   0  0  0  0  0  0  0  0  0  0  0  0
    1.4489    2.5095    0.0000 C   0  0  0  0  0  0  0  0  0  0  0  0
    2.5095    1.4489    0.0000 C   0  0  0  0  0  0  0  0  0  0  0  0
    3.8086    2.1989    0.0000 C   0  0  0  0  0  0  0  0  0  0  0  0
  1  2  1  0
  2  3  2  0
  2  4  1  0
  4  5  1  0
  5  6  2  0
  6  7  1  0
  7  8  2  0
  8  9  1  0
  9 10  2  0
 10 11  1  0
 11 12  2  0
 12 13  1  0
 13 14  2  0
 14 15  1  0
 15 16  2  0
 16 17  1  0
 16  5  1  0
M  END
>  <Title>  (1371) 
idACASgen8

$$$$

     RDKit          2D

 24 24  0  0  0  0  0  0  0  0999 V2000
    7.0080   -0.0000    0.0000 C   0  0  0  0  0  0  0  0  0  0  0  0
    5.5080    0.0000    0.0000 C   0  0  0  0  0  0  0  0  0  0  0  0
    5.3037    1.4860    0.0000 C   0  0  0  0  0  0  0  0  0  0  0  0
    4.7061    2.8618    0.0000 C   0  0  0  0  0  0  0  0  0  0  0  0
    3.7595    4.0254    0.0000 C   0  0  0  0  0  0  0  0  0  0  0  0
    2.5340    4.8904    0.0000 C   0  0  0  0  0  0  0  0  0  0  0  0
    1.1206    5.3928    0.0000 C   0  0  0  0  0  0  0  0  0  0  0  0
   -0.3759    5.4951    0.0000 C   0  0  0  0  0  0  0  0  0  0  0  0
   -1.8445    5.1899    0.0000 C   0  0  0  0  0  0  0  0  0  0  0  0
   -3.1763    4.4998    0.0000 C   0  0  0  0  0  0  0  0  0  0  0  0
   -4.2726    3.4760    0.0000 C   0  0  0  0  0  0  0  0  0  0  0  0
   -5.0520    2.1944    0.0000 C   0  0  0  0  0  0  0  0  0  0  0  0
   -5.4567    0.7500    0.0000 C   0  0  0  0  0  0  0  0  0  0  0  0
   -5.4567   -0.7500    0.0000 C   0  0  0  0  0  0  0  0  0  0  0  0
   -5.0520   -2.1944    0.0000 C   0  0  0  0  0  0  0  0  0  0  0  0
   -4.2726   -3.4760    0.0000 C   0  0  0  0  0  0  0  0  0  0  0  0
   -3.1763   -4.4998    0.0000 C   0  0  0  0  0  0  0  0  0  0  0  0
   -1.8445   -5.1899    0.0000 C   0  0  0  0  0  0  0  0  0  0  0  0
   -0.3759   -5.4951    0.0000 C   0  0  0  0  0  0  0  0  0  0  0  0
    1.1206   -5.3928    0.0000 C   0  0  0  0  0  0  0  0  0  0  0  0
    2.5340   -4.8904    0.0000 C   0  0  0  0  0  0  0  0  0  0  0  0
    3.7595   -4.0254    0.0000 C   0  0  0  0  0  0  0  0  0  0  0  0
    4.7061   -2.8618    0.0000 C   0  0  0  0  0  0  0  0  0  0  0  0
    5.3037   -1.4860    0.0000 C   0  0  0  0  0  0  0  0  0  0  0  0
  1  2  1  0
  2  3  2  0
  3  4  1  0
  4  5  2  0
  5  6  2  0
  6  7  1  0
  7  8  2  0
  8  9  1  0
  9 10  2  0
 10 11  1  0
 11 12  2  0
 12 13  1  0
 13 14  2  0
 14 15  1  0
 15 16  2  0
 16 17  1  0
 17 18  2  0
 18 19  1  0
 19 20  2  0
 20 21  1  0
 21 22  2  0
 22 23  1  0
 23 24  2  0
 24  2  1  0
M  END
>  <Title>  (1372) 
idACATgen8

$$$$

     RDKit          2D

 22 22  0  0  0  0  0  0  0  0999 V2000
   18.7500   -9.0933    0.0000 C   0  0  0  0  0  0  0  0  0  0  0  0
   17.2500   -9.0933    0.0000 C   0  0  0  0  0  0  0  0  0  0  0  0
   16.5000   -7.7942    0.0000 C   0  0  0  0  0  0  0  0  0  0  0  0
   15.0000   -7.7942    0.0000 C   0  0  0  0  0  0  0  0  0  0  0  0
   14.2500   -6.4952    0.0000 C   0  0  0  0  0  0  0  0  0  0  0  0
   12.7500   -6.4952    0.0000 C   0  0  0  0  0  0  0  0  0  0  0  0
   12.0000   -5.1962    0.0000 C   0  0  0  0  0  0  0  0  0  0  0  0
   10.5000   -5.1962    0.0000 C   0  0  0  0  0  0  0  0  0  0  0  0
    9.7500   -3.8971    0.0000 C   0  0  0  0  0  0  0  0  0  0  0  0
    8.2500   -3.8971    0.0000 C   0  0  0  0  0  0  0  0  0  0  0  0
    7.5000   -2.5981    0.0000 C   0  0  0  0  0  0  0  0  0  0  0  0
    6.0000   -2.5981    0.0000 C   0  0  0  0  0  0  0  0  0  0  0  0
    5.2500   -1.2990    0.0000 C   0  0  0  0  0  0  0  0  0  0  0  0
    3.7500   -1.2990    0.0000 C   0  0  0  0  0  0  0  0  0  0  0  0
    3.0000    0.0000    0.0000 C   0  0  0  0  0  0  0  0  0  0  0  0
    1.5000    0.0000    0.0000 C   0  0  0  0  0  0  0  0  0  0  0  0
    0.7500   -1.2990    0.0000 C   0  0  0  0  0  0  0  0  0  0  0  0
   -0.7500   -1.2990    0.0000 C   0  0  0  0  0  0  0  0  0  0  0  0
   -1.5000    0.0000    0.0000 C   0  0  0  0  0  0  0  0  0  0  0  0
   -0.7500    1.2990    0.0000 C   0  0  0  0  0  0  0  0  0  0  0  0
    0.7500    1.2990    0.0000 C   0  0  0  0  0  0  0  0  0  0  0  0
    1.5000    2.5981    0.0000 C   0  0  0  0  0  0  0  0  0  0  0  0
  1  2  1  0
  2  3  1  0
  3  4  1  0
  4  5  1  0
  5  6  1  0
  6  7  1  0
  7  8  1  0
  8  9  1  0
  9 10  1  0
 10 11  1  0
 11 12  1  0
 12 13  1  0
 13 14  1  0
 14 15  1  0
 15 16  1  0
 16 17  2  0
 17 18  1  0
 18 19  2  0
 19 20  1  0
 20 21  2  0
 21 22  1  0
 21 16  1  0
M  END
>  <Title>  (1373) 
idACAUgen8

$$$$

     RDKit          2D

  9  9  0  0  0  0  0  0  0  0999 V2000
    3.9786   -1.2990    0.0000 O   0  0  0  0  0  0  0  0  0  0  0  0
    3.2286   -0.0000    0.0000 C   0  0  0  0  0  0  0  0  0  0  0  0
    1.7286    0.0000    0.0000 C   0  0  0  0  0  0  0  0  0  0  0  0
    1.0777    1.3515    0.0000 C   0  0  0  0  0  0  0  0  0  0  0  0
   -0.3846    1.6852    0.0000 C   0  0  0  0  0  0  0  0  0  0  0  0
   -1.5574    0.7500    0.0000 C   0  0  0  0  0  0  0  0  0  0  0  0
   -1.5574   -0.7500    0.0000 C   0  0  0  0  0  0  0  0  0  0  0  0
   -0.3846   -1.6852    0.0000 C   0  0  0  0  0  0  0  0  0  0  0  0
    1.0777   -1.3515    0.0000 C   0  0  0  0  0  0  0  0  0  0  0  0
  1  2  1  0
  2  3  1  0
  3  4  2  0
  4  5  1  0
  5  6  2  0
  6  7  1  0
  7  8  2  0
  8  9  1  0
  9  3  1  0
M  END
>  <Title>  (1374) 
idACAVgen8

$$$$

     RDKit          2D

 35 39  0  0  0  0  0  0  0  0999 V2000
    3.0000    0.0000    0.0000 C   0  0  0  0  0  0  0  0  0  0  0  0
    1.5000    0.0000    0.0000 C   0  0  0  0  0  0  0  0  0  0  0  0
    0.7500   -1.2990    0.0000 C   0  0  0  0  0  0  0  0  0  0  0  0
   -0.7500   -1.2990    0.0000 C   0  0  0  0  0  0  0  0  0  0  0  0
   -1.5000    0.0000    0.0000 C   0  0  0  0  0  0  0  0  0  0  0  0
   -3.0000    0.0000    0.0000 C   0  0  0  0  0  0  0  0  0  0  0  0
   -3.8817   -1.2135    0.0000 N   0  0  0  0  0  0  0  0  0  0  0  0
   -5.3083   -0.7500    0.0000 N   0  0  0  0  0  0  0  0  0  0  0  0
   -5.3083    0.7500    0.0000 N   0  0  0  0  0  0  0  0  0  0  0  0
   -3.8817    1.2135    0.0000 N   0  0  0  0  0  0  0  0  0  0  0  0
   -3.4182    2.6401    0.0000 C   0  0  0  0  0  0  0  0  0  0  0  0
   -1.9509    2.9520    0.0000 C   0  0  0  0  0  0  0  0  0  0  0  0
   -1.4874    4.3786    0.0000 C   0  0  0  0  0  0  0  0  0  0  0  0
   -2.4911    5.4933    0.0000 C   0  0  0  0  0  0  0  0  0  0  0  0
   -3.9583    5.1814    0.0000 C   0  0  0  0  0  0  0  0  0  0  0  0
   -4.4218    3.7548    0.0000 C   0  0  0  0  0  0  0  0  0  0  0  0
   -5.8891    3.4430    0.0000 C   0  0  0  0  0  0  0  0  0  0  0  0
   -6.4992    2.0726    0.0000 N   0  0  0  0  0  0  0  0  0  0  0  0
   -7.9910    2.2294    0.0000 N   0  0  0  0  0  0  0  0  0  0  0  0
   -8.3028    3.6967    0.0000 N   0  0  0  0  0  0  0  0  0  0  0  0
   -7.0038    4.4467    0.0000 N   0  0  0  0  0  0  0  0  0  0  0  0
   -6.8470    5.9384    0.0000 C   0  0  0  0  0  0  0  0  0  0  0  0
   -5.4767    6.5485    0.0000 C   0  0  0  0  0  0  0  0  0  0  0  0
   -5.3199    8.0403    0.0000 C   0  0  0  0  0  0  0  0  0  0  0  0
   -6.5334    8.9220    0.0000 C   0  0  0  0  0  0  0  0  0  0  0  0
   -6.3766   10.4138    0.0000 C   0  0  0  0  0  0  0  0  0  0  0  0
   -7.5901   11.2955    0.0000 O   0  0  0  0  0  0  0  0  0  0  0  0
   -5.0063   11.0239    0.0000 N   0  0  0  0  0  0  0  0  0  0  0  0
   -4.8495   12.5157    0.0000 O   0  0  0  0  0  0  0  0  0  0  0  0
   -7.9037    8.3119    0.0000 N   0  0  0  0  0  0  0  0  0  0  0  0
   -8.0605    6.8201    0.0000 C   0  0  0  0  0  0  0  0  0  0  0  0
   -9.4308    6.2100    0.0000 O   0  0  0  0  0  0  0  0  0  0  0  0
   -0.7500    1.2990    0.0000 N   0  0  0  0  0  0  0  0  0  0  0  0
    0.7500    1.2990    0.0000 C   0  0  0  0  0  0  0  0  0  0  0  0
    1.5000    2.5981    0.0000 O   0  0  0  0  0  0  0  0  0  0  0  0
  1  2  1  0
  2  3  2  0
  3  4  1  0
  4  5  2  0
  5  6  1  0
  6  7  2  0
  7  8  1  0
  8  9  2  0
  9 10  1  0
 10 11  1  0
 11 12  1  0
 12 13  1  0
 13 14  1  0
 14 15  1  0
 15 16  1  0
 16 17  1  0
 17 18  2  0
 18 19  1  0
 19 20  2  0
 20 21  1  0
 21 22  1  0
 22 23  2  0
 23 24  1  0
 24 25  2  0
 25 26  1  0
 26 27  2  0
 26 28  1  0
 28 29  1  0
 25 30  1  0
 30 31  1  0
 31 32  2  0
  5 33  1  0
 33 34  1  0
 34 35  2  0
 34  2  1  0
 10  6  1  0
 16 11  1  0
 21 17  1  0
 31 22  1  0
M  END
>  <Title>  (1375) 
idACAWgen8

$$$$

     RDKit          2D

 20 20  0  0  0  0  0  0  0  0999 V2000
    6.5691   -1.2990    0.0000 C   0  0  0  0  0  0  0  0  0  0  0  0
    5.8191    0.0000    0.0000 O   0  0  0  0  0  0  0  0  0  0  0  0
    4.3191    0.0000    0.0000 C   0  0  0  0  0  0  0  0  0  0  0  0
    4.0586   -1.4772    0.0000 C   0  0  0  0  0  0  0  0  0  0  0  0
    3.3086   -2.7762    0.0000 C   0  0  0  0  0  0  0  0  0  0  0  0
    2.1595   -3.7404    0.0000 C   0  0  0  0  0  0  0  0  0  0  0  0
    0.7500   -4.2535    0.0000 C   0  0  0  0  0  0  0  0  0  0  0  0
   -0.7500   -4.2535    0.0000 C   0  0  0  0  0  0  0  0  0  0  0  0
   -2.1595   -3.7404    0.0000 C   0  0  0  0  0  0  0  0  0  0  0  0
   -3.3086   -2.7762    0.0000 C   0  0  0  0  0  0  0  0  0  0  0  0
   -4.0586   -1.4772    0.0000 C   0  0  0  0  0  0  0  0  0  0  0  0
   -4.3191    0.0000    0.0000 C   0  0  0  0  0  0  0  0  0  0  0  0
   -4.0586    1.4772    0.0000 C   0  0  0  0  0  0  0  0  0  0  0  0
   -3.3086    2.7762    0.0000 C   0  0  0  0  0  0  0  0  0  0  0  0
   -2.1595    3.7404    0.0000 C   0  0  0  0  0  0  0  0  0  0  0  0
   -0.7500    4.2535    0.0000 C   0  0  0  0  0  0  0  0  0  0  0  0
    0.7500    4.2535    0.0000 C   0  0  0  0  0  0  0  0  0  0  0  0
    2.1595    3.7404    0.0000 C   0  0  0  0  0  0  0  0  0  0  0  0
    3.3086    2.7762    0.0000 C   0  0  0  0  0  0  0  0  0  0  0  0
    4.0586    1.4772    0.0000 N   0  0  0  0  0  0  0  0  0  0  0  0
  1  2  1  0
  2  3  1  0
  3  4  2  0
  4  5  1  0
  5  6  2  0
  6  7  1  0
  7  8  2  0
  8  9  1  0
  9 10  2  0
 10 11  1  0
 11 12  2  0
 12 13  1  0
 13 14  2  0
 14 15  1  0
 15 16  2  0
 16 17  1  0
 17 18  2  0
 18 19  1  0
 19 20  1  0
 20  3  1  0
M  END
>  <Title>  (1376) 
idACAXgen8

$$$$

     RDKit          2D

 54 61  0  0  0  0  0  0  0  0999 V2000
    3.0000    0.0000    0.0000 C   0  0  0  0  0  0  0  0  0  0  0  0
    1.5000    0.0000    0.0000 C   0  0  0  0  0  0  0  0  0  0  0  0
    0.7500   -1.2990    0.0000 C   0  0  0  0  0  0  0  0  0  0  0  0
   -0.7500   -1.2990    0.0000 C   0  0  0  0  0  0  0  0  0  0  0  0
   -1.5000    0.0000    0.0000 C   0  0  0  0  0  0  0  0  0  0  0  0
   -3.0000    0.0000    0.0000 C   0  0  0  0  0  0  0  0  0  0  0  0
   -3.8817   -1.2135    0.0000 N   0  0  0  0  0  0  0  0  0  0  0  0
   -5.3083   -0.7500    0.0000 N   0  0  0  0  0  0  0  0  0  0  0  0
   -5.3083    0.7500    0.0000 N   0  0  0  0  0  0  0  0  0  0  0  0
   -3.8817    1.2135    0.0000 N   0  0  0  0  0  0  0  0  0  0  0  0
   -3.4182    2.6401    0.0000 C   0  0  0  0  0  0  0  0  0  0  0  0
   -1.9509    2.9520    0.0000 C   0  0  0  0  0  0  0  0  0  0  0  0
   -1.4874    4.3786    0.0000 C   0  0  0  0  0  0  0  0  0  0  0  0
   -2.4911    5.4933    0.0000 C   0  0  0  0  0  0  0  0  0  0  0  0
   -2.0276    6.9199    0.0000 C   0  0  0  0  0  0  0  0  0  0  0  0
   -3.0313    8.0346    0.0000 O   0  0  0  0  0  0  0  0  0  0  0  0
   -0.5604    7.2317    0.0000 N   0  0  0  0  0  0  0  0  0  0  0  0
   -0.0968    8.6583    0.0000 C   0  0  0  0  0  0  0  0  0  0  0  0
   -0.9785    9.8718    0.0000 N   0  0  0  0  0  0  0  0  0  0  0  0
   -0.0968   11.0854    0.0000 N   0  0  0  0  0  0  0  0  0  0  0  0
    1.3298   10.6218    0.0000 N   0  0  0  0  0  0  0  0  0  0  0  0
    1.3298    9.1218    0.0000 N   0  0  0  0  0  0  0  0  0  0  0  0
    2.5433    8.2402    0.0000 C   0  0  0  0  0  0  0  0  0  0  0  0
    2.3865    6.7484    0.0000 C   0  0  0  0  0  0  0  0  0  0  0  0
    3.6000    5.8667    0.0000 C   0  0  0  0  0  0  0  0  0  0  0  0
    4.9703    6.4768    0.0000 C   0  0  0  0  0  0  0  0  0  0  0  0
    6.1839    5.5951    0.0000 C   0  0  0  0  0  0  0  0  0  0  0  0
    7.5542    6.2052    0.0000 O   0  0  0  0  0  0  0  0  0  0  0  0
    6.0271    4.1033    0.0000 N   0  0  0  0  0  0  0  0  0  0  0  0
    7.2406    3.2217    0.0000 O   0  0  0  0  0  0  0  0  0  0  0  0
    5.1271    7.9686    0.0000 C   0  0  0  0  0  0  0  0  0  0  0  0
    3.9136    8.8503    0.0000 C   0  0  0  0  0  0  0  0  0  0  0  0
   -3.9583    5.1814    0.0000 C   0  0  0  0  0  0  0  0  0  0  0  0
   -4.4218    3.7548    0.0000 C   0  0  0  0  0  0  0  0  0  0  0  0
   -5.8891    3.4430    0.0000 C   0  0  0  0  0  0  0  0  0  0  0  0
   -6.4992    2.0726    0.0000 C   0  0  0  0  0  0  0  0  0  0  0  0
   -7.9910    2.2294    0.0000 C   0  0  0  0  0  0  0  0  0  0  0  0
   -8.3028    3.6967    0.0000 C   0  0  0  0  0  0  0  0  0  0  0  0
   -9.6731    4.3068    0.0000 N   0  0  0  0  0  0  0  0  0  0  0  0
  -10.8867    3.4251    0.0000 C   0  0  0  0  0  0  0  0  0  0  0  0
  -10.8867    1.9251    0.0000 N   0  0  0  0  0  0  0  0  0  0  0  0
  -12.3133    1.4616    0.0000 N   0  0  0  0  0  0  0  0  0  0  0  0
  -13.1949    2.6751    0.0000 N   0  0  0  0  0  0  0  0  0  0  0  0
  -12.3133    3.8886    0.0000 N   0  0  0  0  0  0  0  0  0  0  0  0
  -12.7768    5.3152    0.0000 C   0  0  0  0  0  0  0  0  0  0  0  0
  -14.2440    5.6271    0.0000 C   0  0  0  0  0  0  0  0  0  0  0  0
  -14.7075    7.0536    0.0000 C   0  0  0  0  0  0  0  0  0  0  0  0
  -13.7038    8.1684    0.0000 C   0  0  0  0  0  0  0  0  0  0  0  0
  -12.2366    7.8565    0.0000 C   0  0  0  0  0  0  0  0  0  0  0  0
  -11.7731    6.4299    0.0000 C   0  0  0  0  0  0  0  0  0  0  0  0
   -7.0038    4.4467    0.0000 C   0  0  0  0  0  0  0  0  0  0  0  0
   -6.8470    5.9384    0.0000 O   0  0  0  0  0  0  0  0  0  0  0  0
   -0.7500    1.2990    0.0000 C   0  0  0  0  0  0  0  0  0  0  0  0
    0.7500    1.2990    0.0000 C   0  0  0  0  0  0  0  0  0  0  0  0
  1  2  1  0
  2  3  2  0
  3  4  1  0
  4  5  2  0
  5  6  1  0
  6  7  2  0
  7  8  1  0
  8  9  2  0
  9 10  1  0
 10 11  1  0
 11 12  2  0
 12 13  1  0
 13 14  2  0
 14 15  1  0
 15 16  2  0
 15 17  1  0
 17 18  1  0
 18 19  2  0
 19 20  1  0
 20 21  2  0
 21 22  1  0
 22 23  1  0
 23 24  2  0
 24 25  1  0
 25 26  2  0
 26 27  1  0
 27 28  2  0
 27 29  1  0
 29 30  1  0
 26 31  1  0
 31 32  1  0
 14 33  1  0
 33 34  2  0
 34 35  1  0
 35 36  2  0
 36 37  1  0
 37 38  2  0
 38 39  1  0
 39 40  1  0
 40 41  2  0
 41 42  1  0
 42 43  2  0
 43 44  1  0
 44 45  1  0
 45 46  2  0
 46 47  1  0
 47 48  2  0
 48 49  1  0
 49 50  2  0
 38 51  1  0
 51 52  2  0
  5 53  1  0
 53 54  2  0
 54  2  1  0
 10  6  1  0
 34 11  1  0
 51 35  1  0
 22 18  1  0
 32 23  1  0
 44 40  1  0
 50 45  1  0
M  END
>  <Title>  (1377) 
idACAYgen8

$$$$

     RDKit          2D

 43 43  0  0  0  0  0  0  0  0999 V2000
   11.5361    0.0000    0.0000 O   0  0  0  0  0  0  0  0  0  0  0  0
   10.0361    0.0000    0.0000 C   0  0  0  0  0  0  0  0  0  0  0  0
    9.9240   -1.4958    0.0000 C   0  0  0  0  0  0  0  0  0  0  0  0
    9.5902   -2.9582    0.0000 C   0  0  0  0  0  0  0  0  0  0  0  0
    9.0422   -4.3545    0.0000 C   0  0  0  0  0  0  0  0  0  0  0  0
    8.2922   -5.6535    0.0000 C   0  0  0  0  0  0  0  0  0  0  0  0
    7.3570   -6.8263    0.0000 C   0  0  0  0  0  0  0  0  0  0  0  0
    6.2574   -7.8466    0.0000 C   0  0  0  0  0  0  0  0  0  0  0  0
    5.0181   -8.6915    0.0000 C   0  0  0  0  0  0  0  0  0  0  0  0
    3.6666   -9.3424    0.0000 C   0  0  0  0  0  0  0  0  0  0  0  0
    2.2332   -9.7845    0.0000 C   0  0  0  0  0  0  0  0  0  0  0  0
    0.7500  -10.0081    0.0000 C   0  0  0  0  0  0  0  0  0  0  0  0
   -0.7500  -10.0081    0.0000 C   0  0  0  0  0  0  0  0  0  0  0  0
   -2.2332   -9.7845    0.0000 C   0  0  0  0  0  0  0  0  0  0  0  0
   -3.6666   -9.3424    0.0000 C   0  0  0  0  0  0  0  0  0  0  0  0
   -5.0181   -8.6915    0.0000 C   0  0  0  0  0  0  0  0  0  0  0  0
   -6.2574   -7.8466    0.0000 C   0  0  0  0  0  0  0  0  0  0  0  0
   -7.3570   -6.8263    0.0000 C   0  0  0  0  0  0  0  0  0  0  0  0
   -8.2922   -5.6535    0.0000 C   0  0  0  0  0  0  0  0  0  0  0  0
   -9.0422   -4.3545    0.0000 C   0  0  0  0  0  0  0  0  0  0  0  0
   -9.5902   -2.9582    0.0000 C   0  0  0  0  0  0  0  0  0  0  0  0
   -9.9240   -1.4958    0.0000 C   0  0  0  0  0  0  0  0  0  0  0  0
  -10.0361    0.0000    0.0000 C   0  0  0  0  0  0  0  0  0  0  0  0
   -9.9240    1.4958    0.0000 C   0  0  0  0  0  0  0  0  0  0  0  0
   -9.5902    2.9582    0.0000 C   0  0  0  0  0  0  0  0  0  0  0  0
   -9.0422    4.3545    0.0000 C   0  0  0  0  0  0  0  0  0  0  0  0
   -8.2922    5.6535    0.0000 C   0  0  0  0  0  0  0  0  0  0  0  0
   -7.3570    6.8263    0.0000 C   0  0  0  0  0  0  0  0  0  0  0  0
   -6.2574    7.8466    0.0000 C   0  0  0  0  0  0  0  0  0  0  0  0
   -5.0181    8.6915    0.0000 C   0  0  0  0  0  0  0  0  0  0  0  0
   -3.6666    9.3424    0.0000 C   0  0  0  0  0  0  0  0  0  0  0  0
   -2.2332    9.7845    0.0000 C   0  0  0  0  0  0  0  0  0  0  0  0
   -0.7500   10.0081    0.0000 C   0  0  0  0  0  0  0  0  0  0  0  0
    0.7500   10.0081    0.0000 C   0  0  0  0  0  0  0  0  0  0  0  0
    2.2332    9.7845    0.0000 C   0  0  0  0  0  0  0  0  0  0  0  0
    3.6666    9.3424    0.0000 C   0  0  0  0  0  0  0  0  0  0  0  0
    5.0181    8.6915    0.0000 C   0  0  0  0  0  0  0  0  0  0  0  0
    6.2574    7.8466    0.0000 C   0  0  0  0  0  0  0  0  0  0  0  0
    7.3570    6.8263    0.0000 C   0  0  0  0  0  0  0  0  0  0  0  0
    8.2922    5.6535    0.0000 C   0  0  0  0  0  0  0  0  0  0  0  0
    9.0422    4.3545    0.0000 C   0  0  0  0  0  0  0  0  0  0  0  0
    9.5902    2.9582    0.0000 C   0  0  0  0  0  0  0  0  0  0  0  0
    9.9240    1.4958    0.0000 C   0  0  0  0  0  0  0  0  0  0  0  0
  1  2  1  0
  2  3  2  0
  3  4  1  0
  4  5  2  0
  5  6  1  0
  6  7  2  0
  7  8  1  0
  8  9  2  0
  9 10  1  0
 10 11  2  0
 11 12  1  0
 12 13  2  0
 13 14  1  0
 14 15  2  0
 15 16  1  0
 16 17  2  0
 17 18  1  0
 18 19  2  0
 19 20  1  0
 20 21  2  0
 21 22  1  0
 22 23  2  0
 23 24  1  0
 24 25  2  0
 25 26  1  0
 26 27  2  0
 27 28  1  0
 28 29  2  0
 29 30  1  0
 30 31  2  0
 31 32  1  0
 32 33  2  0
 33 34  1  0
 34 35  2  0
 35 36  1  0
 36 37  2  0
 37 38  1  0
 38 39  2  0
 39 40  1  0
 40 41  2  0
 41 42  1  0
 42 43  2  0
 43  2  1  0
M  END
>  <Title>  (1378) 
idACAZgen8

$$$$

     RDKit          2D

 20 20  0  0  0  0  0  0  0  0999 V2000
    6.0944   -1.2990    0.0000 C   0  0  0  0  0  0  0  0  0  0  0  0
    5.3444    0.0000    0.0000 O   0  0  0  0  0  0  0  0  0  0  0  0
    3.8444    0.0000    0.0000 C   0  0  0  0  0  0  0  0  0  0  0  0
    3.5517   -1.4712    0.0000 C   0  0  0  0  0  0  0  0  0  0  0  0
    2.7184   -2.7184    0.0000 C   0  0  0  0  0  0  0  0  0  0  0  0
    1.4712   -3.5517    0.0000 C   0  0  0  0  0  0  0  0  0  0  0  0
   -0.0000   -3.8444    0.0000 C   0  0  0  0  0  0  0  0  0  0  0  0
   -1.4712   -3.5517    0.0000 N   0  0  0  0  0  0  0  0  0  0  0  0
   -2.7184   -2.7184    0.0000 N   0  0  0  0  0  0  0  0  0  0  0  0
   -3.5517   -1.4712    0.0000 N   0  0  0  0  0  0  0  0  0  0  0  0
   -3.8444    0.0000    0.0000 N   0  0  0  0  0  0  0  0  0  0  0  0
   -3.5517    1.4712    0.0000 N   0  0  0  0  0  0  0  0  0  0  0  0
   -2.7184    2.7184    0.0000 N   0  0  0  0  0  0  0  0  0  0  0  0
   -1.4712    3.5517    0.0000 C   0  0  0  0  0  0  0  0  0  0  0  0
   -2.0452    4.9376    0.0000 C   0  0  0  0  0  0  0  0  0  0  0  0
    0.0000    3.8444    0.0000 C   0  0  0  0  0  0  0  0  0  0  0  0
    0.0000    5.3444    0.0000 C   0  0  0  0  0  0  0  0  0  0  0  0
    1.4712    3.5517    0.0000 C   0  0  0  0  0  0  0  0  0  0  0  0
    2.7184    2.7184    0.0000 C   0  0  0  0  0  0  0  0  0  0  0  0
    3.5517    1.4712    0.0000 C   0  0  0  0  0  0  0  0  0  0  0  0
  1  2  1  0
  2  3  1  0
  3  4  2  0
  4  5  1  0
  5  6  2  0
  6  7  2  0
  7  8  2  0
  8  9  1  0
  9 10  2  0
 10 11  1  0
 11 12  2  0
 12 13  1  0
 13 14  2  0
 14 15  1  0
 14 16  1  0
 16 17  1  0
 16 18  2  0
 18 19  1  0
 19 20  2  0
 20  3  1  0
M  END
>  <Title>  (1379) 
idACBAgen8

$$$$

     RDKit          2D

 52 60  0  0  0  0  0  0  0  0999 V2000
    3.0000    0.0000    0.0000 C   0  0  0  0  0  0  0  0  0  0  0  0
    1.5000    0.0000    0.0000 C   0  0  0  0  0  0  0  0  0  0  0  0
    0.7500    1.2990    0.0000 C   0  0  0  0  0  0  0  0  0  0  0  0
   -0.7500    1.2990    0.0000 C   0  0  0  0  0  0  0  0  0  0  0  0
   -1.5000    0.0000    0.0000 C   0  0  0  0  0  0  0  0  0  0  0  0
   -3.0000    0.0000    0.0000 C   0  0  0  0  0  0  0  0  0  0  0  0
   -3.8817   -1.2135    0.0000 N   0  0  0  0  0  0  0  0  0  0  0  0
   -5.3083   -0.7500    0.0000 N   0  0  0  0  0  0  0  0  0  0  0  0
   -5.3083    0.7500    0.0000 N   0  0  0  0  0  0  0  0  0  0  0  0
   -3.8817    1.2135    0.0000 N   0  0  0  0  0  0  0  0  0  0  0  0
   -3.4182    2.6401    0.0000 C   0  0  0  0  0  0  0  0  0  0  0  0
   -1.9509    2.9520    0.0000 C   0  0  0  0  0  0  0  0  0  0  0  0
   -1.4874    4.3786    0.0000 C   0  0  0  0  0  0  0  0  0  0  0  0
   -2.4911    5.4933    0.0000 C   0  0  0  0  0  0  0  0  0  0  0  0
   -2.0276    6.9199    0.0000 C   0  0  0  0  0  0  0  0  0  0  0  0
   -2.9093    8.1334    0.0000 N   0  0  0  0  0  0  0  0  0  0  0  0
   -2.0276    9.3469    0.0000 N   0  0  0  0  0  0  0  0  0  0  0  0
   -0.6010    8.8834    0.0000 N   0  0  0  0  0  0  0  0  0  0  0  0
   -0.6010    7.3834    0.0000 N   0  0  0  0  0  0  0  0  0  0  0  0
    0.6125    6.5017    0.0000 C   0  0  0  0  0  0  0  0  0  0  0  0
    0.4557    5.0099    0.0000 C   0  0  0  0  0  0  0  0  0  0  0  0
    1.6693    4.1283    0.0000 C   0  0  0  0  0  0  0  0  0  0  0  0
    3.0396    4.7384    0.0000 C   0  0  0  0  0  0  0  0  0  0  0  0
    3.1964    6.2301    0.0000 C   0  0  0  0  0  0  0  0  0  0  0  0
    1.9829    7.1118    0.0000 C   0  0  0  0  0  0  0  0  0  0  0  0
   -3.9583    5.1814    0.0000 C   0  0  0  0  0  0  0  0  0  0  0  0
   -4.4218    3.7548    0.0000 C   0  0  0  0  0  0  0  0  0  0  0  0
   -5.8891    3.4430    0.0000 C   0  0  0  0  0  0  0  0  0  0  0  0
   -6.4992    2.0726    0.0000 N   0  0  0  0  0  0  0  0  0  0  0  0
   -7.9910    2.2294    0.0000 N   0  0  0  0  0  0  0  0  0  0  0  0
   -8.3028    3.6967    0.0000 N   0  0  0  0  0  0  0  0  0  0  0  0
   -7.0038    4.4467    0.0000 N   0  0  0  0  0  0  0  0  0  0  0  0
   -6.8470    5.9384    0.0000 C   0  0  0  0  0  0  0  0  0  0  0  0
   -5.4767    6.5485    0.0000 C   0  0  0  0  0  0  0  0  0  0  0  0
   -5.3199    8.0403    0.0000 C   0  0  0  0  0  0  0  0  0  0  0  0
   -6.5334    8.9220    0.0000 C   0  0  0  0  0  0  0  0  0  0  0  0
   -6.3766   10.4138    0.0000 C   0  0  0  0  0  0  0  0  0  0  0  0
   -5.0776   11.1638    0.0000 N   0  0  0  0  0  0  0  0  0  0  0  0
   -5.3894   12.6310    0.0000 N   0  0  0  0  0  0  0  0  0  0  0  0
   -6.8812   12.7878    0.0000 N   0  0  0  0  0  0  0  0  0  0  0  0
   -7.4913   11.4175    0.0000 N   0  0  0  0  0  0  0  0  0  0  0  0
   -8.9586   11.1056    0.0000 C   0  0  0  0  0  0  0  0  0  0  0  0
   -9.4221    9.6790    0.0000 C   0  0  0  0  0  0  0  0  0  0  0  0
  -10.8893    9.3672    0.0000 C   0  0  0  0  0  0  0  0  0  0  0  0
  -11.8930   10.4819    0.0000 C   0  0  0  0  0  0  0  0  0  0  0  0
  -11.4295   11.9085    0.0000 C   0  0  0  0  0  0  0  0  0  0  0  0
   -9.9623   12.2203    0.0000 C   0  0  0  0  0  0  0  0  0  0  0  0
   -7.9037    8.3119    0.0000 C   0  0  0  0  0  0  0  0  0  0  0  0
   -8.0605    6.8201    0.0000 C   0  0  0  0  0  0  0  0  0  0  0  0
   -0.7500   -1.2990    0.0000 C   0  0  0  0  0  0  0  0  0  0  0  0
   -1.5000   -2.5981    0.0000 O   0  0  0  0  0  0  0  0  0  0  0  0
    0.7500   -1.2990    0.0000 N   0  0  0  0  0  0  0  0  0  0  0  0
  1  2  1  0
  2  3  2  0
  3  4  1  0
  4  5  2  0
  5  6  1  0
  6  7  2  0
  7  8  1  0
  8  9  2  0
  9 10  1  0
 10 11  1  0
 11 12  2  0
 12 13  1  0
 13 14  2  0
 14 15  1  0
 15 16  2  0
 16 17  1  0
 17 18  2  0
 18 19  1  0
 19 20  1  0
 20 21  2  0
 21 22  1  0
 22 23  2  0
 23 24  1  0
 24 25  2  0
 14 26  1  0
 26 27  2  0
 27 28  1  0
 28 29  2  0
 29 30  1  0
 30 31  2  0
 31 32  1  0
 32 33  1  0
 33 34  2  0
 34 35  1  0
 35 36  2  0
 36 37  1  0
 37 38  2  0
 38 39  1  0
 39 40  2  0
 40 41  1  0
 41 42  1  0
 42 43  2  0
 43 44  1  0
 44 45  2  0
 45 46  1  0
 46 47  2  0
 36 48  1  0
 48 49  2  0
  5 50  1  0
 50 51  2  0
 50 52  1  0
 52  2  1  0
 10  6  1  0
 27 11  1  0
 32 28  1  0
 49 33  1  0
 19 15  1  0
 25 20  1  0
 41 37  1  0
 47 42  1  0
M  END
>  <Title>  (1380) 
idACBBgen8

$$$$

     RDKit          2D

 45 50  0  0  0  0  0  0  0  0999 V2000
  -11.2943    3.9534    0.0000 C   0  0  0  0  0  0  0  0  0  0  0  0
   -9.9953    3.2034    0.0000 C   0  0  0  0  0  0  0  0  0  0  0  0
  -10.1910    1.7162    0.0000 C   0  0  0  0  0  0  0  0  0  0  0  0
   -9.2779    0.5262    0.0000 C   0  0  0  0  0  0  0  0  0  0  0  0
   -7.7907    0.3304    0.0000 C   0  0  0  0  0  0  0  0  0  0  0  0
   -6.6007    1.2435    0.0000 C   0  0  0  0  0  0  0  0  0  0  0  0
   -6.4049    2.7307    0.0000 C   0  0  0  0  0  0  0  0  0  0  0  0
   -4.9560    3.1189    0.0000 N   0  0  0  0  0  0  0  0  0  0  0  0
   -4.5678    4.5678    0.0000 N   0  0  0  0  0  0  0  0  0  0  0  0
   -3.1189    4.9560    0.0000 N   0  0  0  0  0  0  0  0  0  0  0  0
   -2.0583    3.8954    0.0000 N   0  0  0  0  0  0  0  0  0  0  0  0
   -2.4465    2.4465    0.0000 N   0  0  0  0  0  0  0  0  0  0  0  0
   -3.8954    2.0583    0.0000 N   0  0  0  0  0  0  0  0  0  0  0  0
   -4.2836    0.6094    0.0000 C   0  0  0  0  0  0  0  0  0  0  0  0
   -5.7325    0.2211    0.0000 C   0  0  0  0  0  0  0  0  0  0  0  0
   -6.1207   -1.2278    0.0000 C   0  0  0  0  0  0  0  0  0  0  0  0
   -5.0601   -2.2884    0.0000 C   0  0  0  0  0  0  0  0  0  0  0  0
   -5.4483   -3.7373    0.0000 C   0  0  0  0  0  0  0  0  0  0  0  0
   -4.3876   -4.7980    0.0000 C   0  0  0  0  0  0  0  0  0  0  0  0
   -4.7759   -6.2469    0.0000 C   0  0  0  0  0  0  0  0  0  0  0  0
   -6.2247   -6.6351    0.0000 C   0  0  0  0  0  0  0  0  0  0  0  0
   -7.2854   -5.5744    0.0000 N   0  0  0  0  0  0  0  0  0  0  0  0
   -6.8972   -4.1255    0.0000 C   0  0  0  0  0  0  0  0  0  0  0  0
   -7.9578   -3.0649    0.0000 C   0  0  0  0  0  0  0  0  0  0  0  0
   -9.4067   -3.4531    0.0000 C   0  0  0  0  0  0  0  0  0  0  0  0
  -10.4674   -2.3924    0.0000 C   0  0  0  0  0  0  0  0  0  0  0  0
  -10.0792   -0.9436    0.0000 C   0  0  0  0  0  0  0  0  0  0  0  0
  -11.1398    0.1171    0.0000 C   0  0  0  0  0  0  0  0  0  0  0  0
  -11.1137    1.6169    0.0000 O   0  0  0  0  0  0  0  0  0  0  0  0
  -12.5887   -0.2711    0.0000 N   0  0  0  0  0  0  0  0  0  0  0  0
  -13.6494    0.7895    0.0000 O   0  0  0  0  0  0  0  0  0  0  0  0
   -8.6303   -0.5553    0.0000 C   0  0  0  0  0  0  0  0  0  0  0  0
   -7.5696   -1.6160    0.0000 C   0  0  0  0  0  0  0  0  0  0  0  0
   -3.6112   -1.9002    0.0000 C   0  0  0  0  0  0  0  0  0  0  0  0
   -3.2229   -0.4513    0.0000 C   0  0  0  0  0  0  0  0  0  0  0  0
   -1.7740   -0.0631    0.0000 C   0  0  0  0  0  0  0  0  0  0  0  0
   -1.2365    1.3373    0.0000 C   0  0  0  0  0  0  0  0  0  0  0  0
    0.2614    1.2588    0.0000 C   0  0  0  0  0  0  0  0  0  0  0  0
    0.6497   -0.1901    0.0000 C   0  0  0  0  0  0  0  0  0  0  0  0
    2.0500   -0.7276    0.0000 C   0  0  0  0  0  0  0  0  0  0  0  0
   -0.6083   -1.0071    0.0000 C   0  0  0  0  0  0  0  0  0  0  0  0
   -0.6868   -2.5050    0.0000 O   0  0  0  0  0  0  0  0  0  0  0  0
   -7.3181    3.9207    0.0000 N   0  0  0  0  0  0  0  0  0  0  0  0
   -8.8052    4.1165    0.0000 C   0  0  0  0  0  0  0  0  0  0  0  0
   -9.1935    5.5654    0.0000 O   0  0  0  0  0  0  0  0  0  0  0  0
  1  2  1  0
  2  3  2  0
  3  4  1  0
  4  5  2  0
  5  6  1  0
  6  7  2  0
  7  8  1  0
  8  9  1  0
  9 10  2  0
 10 11  1  0
 11 12  2  0
 12 13  1  0
 13 14  1  0
 14 15  2  0
 15 16  1  0
 16 17  2  0
 17 18  1  0
 18 19  2  0
 19 20  1  0
 20 21  2  0
 21 22  1  0
 22 23  2  0
 23 24  1  0
 24 25  2  0
 25 26  1  0
 26 27  2  0
 27 28  1  0
 28 29  2  0
 28 30  1  0
 30 31  1  0
 27 32  1  0
 32 33  1  0
 17 34  1  0
 34 35  2  0
 35 36  1  0
 36 37  2  0
 37 38  1  0
 38 39  2  0
 39 40  1  0
 39 41  1  0
 41 42  2  0
  7 43  1  0
 43 44  1  0
 44 45  2  0
 44  2  1  0
 13  8  1  0
 35 14  1  0
 41 36  1  0
 23 18  1  0
 33 24  1  0
M  END
>  <Title>  (1381) 
idACBCgen8

$$$$

     RDKit          2D

 35 35  0  0  0  0  0  0  0  0999 V2000
    9.3901    0.0000    0.0000 C   0  0  0  0  0  0  0  0  0  0  0  0
    7.8901    0.0000    0.0000 C   0  0  0  0  0  0  0  0  0  0  0  0
    7.7475    1.4932    0.0000 C   0  0  0  0  0  0  0  0  0  0  0  0
    7.3249    2.9324    0.0000 C   0  0  0  0  0  0  0  0  0  0  0  0
    6.6376    4.2657    0.0000 C   0  0  0  0  0  0  0  0  0  0  0  0
    5.7103    5.4448    0.0000 C   0  0  0  0  0  0  0  0  0  0  0  0
    6.7959    6.4799    0.0000 C   0  0  0  0  0  0  0  0  0  0  0  0
    4.5767    6.4271    0.0000 C   0  0  0  0  0  0  0  0  0  0  0  0
    3.2777    7.1771    0.0000 C   0  0  0  0  0  0  0  0  0  0  0  0
    1.8602    7.6677    0.0000 C   0  0  0  0  0  0  0  0  0  0  0  0
    0.3754    7.8811    0.0000 C   0  0  0  0  0  0  0  0  0  0  0  0
   -1.1229    7.8098    0.0000 C   0  0  0  0  0  0  0  0  0  0  0  0
   -2.5806    7.4561    0.0000 C   0  0  0  0  0  0  0  0  0  0  0  0
   -3.9450    6.8330    0.0000 C   0  0  0  0  0  0  0  0  0  0  0  0
   -5.1669    5.9629    0.0000 C   0  0  0  0  0  0  0  0  0  0  0  0
   -6.2020    4.8773    0.0000 C   0  0  0  0  0  0  0  0  0  0  0  0
   -7.0130    3.6154    0.0000 C   0  0  0  0  0  0  0  0  0  0  0  0
   -7.5705    2.2229    0.0000 C   0  0  0  0  0  0  0  0  0  0  0  0
   -7.8544    0.7500    0.0000 C   0  0  0  0  0  0  0  0  0  0  0  0
   -7.8544   -0.7500    0.0000 C   0  0  0  0  0  0  0  0  0  0  0  0
   -7.5705   -2.2229    0.0000 C   0  0  0  0  0  0  0  0  0  0  0  0
   -7.0130   -3.6154    0.0000 C   0  0  0  0  0  0  0  0  0  0  0  0
   -6.2020   -4.8773    0.0000 C   0  0  0  0  0  0  0  0  0  0  0  0
   -5.1669   -5.9629    0.0000 C   0  0  0  0  0  0  0  0  0  0  0  0
   -3.9450   -6.8330    0.0000 C   0  0  0  0  0  0  0  0  0  0  0  0
   -2.5806   -7.4561    0.0000 C   0  0  0  0  0  0  0  0  0  0  0  0
   -1.1229   -7.8098    0.0000 C   0  0  0  0  0  0  0  0  0  0  0  0
    0.3754   -7.8811    0.0000 C   0  0  0  0  0  0  0  0  0  0  0  0
    1.8602   -7.6677    0.0000 C   0  0  0  0  0  0  0  0  0  0  0  0
    3.2777   -7.1771    0.0000 C   0  0  0  0  0  0  0  0  0  0  0  0
    4.5767   -6.4271    0.0000 C   0  0  0  0  0  0  0  0  0  0  0  0
    5.7103   -5.4448    0.0000 C   0  0  0  0  0  0  0  0  0  0  0  0
    6.6376   -4.2657    0.0000 C   0  0  0  0  0  0  0  0  0  0  0  0
    7.3249   -2.9324    0.0000 C   0  0  0  0  0  0  0  0  0  0  0  0
    7.7475   -1.4932    0.0000 C   0  0  0  0  0  0  0  0  0  0  0  0
  1  2  1  0
  2  3  2  0
  3  4  2  0
  4  5  1  0
  5  6  2  0
  6  7  1  0
  6  8  1  0
  8  9  2  0
  9 10  1  0
 10 11  2  0
 11 12  1  0
 12 13  2  0
 13 14  1  0
 14 15  2  0
 15 16  1  0
 16 17  2  0
 17 18  1  0
 18 19  2  0
 19 20  1  0
 20 21  2  0
 21 22  1  0
 22 23  2  0
 23 24  1  0
 24 25  2  0
 25 26  1  0
 26 27  2  0
 27 28  1  0
 28 29  2  0
 29 30  1  0
 30 31  2  0
 31 32  1  0
 32 33  2  0
 33 34  1  0
 34 35  2  0
 35  2  1  0
M  END
>  <Title>  (1382) 
idACBDgen8

$$$$

     RDKit          2D

 35 39  0  0  0  0  0  0  0  0999 V2000
    3.9786   -1.2990    0.0000 C   0  0  0  0  0  0  0  0  0  0  0  0
    3.2286   -0.0000    0.0000 O   0  0  0  0  0  0  0  0  0  0  0  0
    1.7286    0.0000    0.0000 C   0  0  0  0  0  0  0  0  0  0  0  0
    1.0777    1.3515    0.0000 C   0  0  0  0  0  0  0  0  0  0  0  0
   -0.3846    1.6852    0.0000 C   0  0  0  0  0  0  0  0  0  0  0  0
   -1.5574    0.7500    0.0000 C   0  0  0  0  0  0  0  0  0  0  0  0
   -2.9088    1.4008    0.0000 C   0  0  0  0  0  0  0  0  0  0  0  0
   -4.2297    0.6900    0.0000 N   0  0  0  0  0  0  0  0  0  0  0  0
   -5.3139    1.7266    0.0000 N   0  0  0  0  0  0  0  0  0  0  0  0
   -4.6631    3.0781    0.0000 N   0  0  0  0  0  0  0  0  0  0  0  0
   -3.1767    2.8767    0.0000 N   0  0  0  0  0  0  0  0  0  0  0  0
   -2.1401    3.9609    0.0000 C   0  0  0  0  0  0  0  0  0  0  0  0
   -2.4079    5.4368    0.0000 C   0  0  0  0  0  0  0  0  0  0  0  0
   -1.0870    6.1476    0.0000 C   0  0  0  0  0  0  0  0  0  0  0  0
   -0.0028    5.1110    0.0000 C   0  0  0  0  0  0  0  0  0  0  0  0
    1.4731    5.3789    0.0000 C   0  0  0  0  0  0  0  0  0  0  0  0
    1.6223    6.8714    0.0000 O   0  0  0  0  0  0  0  0  0  0  0  0
    2.4430    4.2346    0.0000 N   0  0  0  0  0  0  0  0  0  0  0  0
    3.9189    4.5024    0.0000 C   0  0  0  0  0  0  0  0  0  0  0  0
    5.0030    3.4658    0.0000 N   0  0  0  0  0  0  0  0  0  0  0  0
    6.3239    4.1767    0.0000 N   0  0  0  0  0  0  0  0  0  0  0  0
    6.0561    5.6525    0.0000 N   0  0  0  0  0  0  0  0  0  0  0  0
    4.5697    5.8539    0.0000 N   0  0  0  0  0  0  0  0  0  0  0  0
    3.8589    7.1748    0.0000 C   0  0  0  0  0  0  0  0  0  0  0  0
    4.6474    8.4508    0.0000 C   0  0  0  0  0  0  0  0  0  0  0  0
    3.9366    9.7717    0.0000 C   0  0  0  0  0  0  0  0  0  0  0  0
    2.4373    9.8166    0.0000 C   0  0  0  0  0  0  0  0  0  0  0  0
    1.6487    8.5406    0.0000 C   0  0  0  0  0  0  0  0  0  0  0  0
    2.3595    7.2197    0.0000 C   0  0  0  0  0  0  0  0  0  0  0  0
   -0.6537    3.7596    0.0000 C   0  0  0  0  0  0  0  0  0  0  0  0
    0.0571    2.4387    0.0000 O   0  0  0  0  0  0  0  0  0  0  0  0
   -1.5574   -0.7500    0.0000 N   0  0  0  0  0  0  0  0  0  0  0  0
   -0.3846   -1.6852    0.0000 C   0  0  0  0  0  0  0  0  0  0  0  0
   -0.7184   -3.1476    0.0000 O   0  0  0  0  0  0  0  0  0  0  0  0
    1.0777   -1.3515    0.0000 N   0  0  0  0  0  0  0  0  0  0  0  0
  1  2  1  0
  2  3  1  0
  3  4  2  0
  4  5  1  0
  5  6  2  0
  6  7  1  0
  7  8  2  0
  8  9  1  0
  9 10  2  0
 10 11  1  0
 11 12  1  0
 12 13  2  0
 13 14  1  0
 14 15  2  0
 15 16  1  0
 16 17  2  0
 16 18  1  0
 18 19  1  0
 19 20  2  0
 20 21  1  0
 21 22  2  0
 22 23  1  0
 23 24  1  0
 24 25  2  0
 25 26  1  0
 26 27  2  0
 27 28  1  0
 28 29  2  0
 15 30  1  0
 30 31  2  0
  6 32  1  0
 32 33  1  0
 33 34  2  0
 33 35  1  0
 35  3  1  0
 11  7  1  0
 30 12  1  0
 23 19  1  0
 29 24  1  0
M  END
>  <Title>  (1383) 
idACBEgen8

$$$$

     RDKit          2D

 28 28  0  0  0  0  0  0  0  0999 V2000
    9.4960   -1.2990    0.0000 C   0  0  0  0  0  0  0  0  0  0  0  0
    7.9960   -1.2990    0.0000 C   0  0  0  0  0  0  0  0  0  0  0  0
    7.2460   -2.5981    0.0000 O   0  0  0  0  0  0  0  0  0  0  0  0
    7.2460    0.0000    0.0000 N   0  0  0  0  0  0  0  0  0  0  0  0
    5.7460    0.0000    0.0000 C   0  0  0  0  0  0  0  0  0  0  0  0
    5.5502   -1.4872    0.0000 C   0  0  0  0  0  0  0  0  0  0  0  0
    4.9762   -2.8730    0.0000 C   0  0  0  0  0  0  0  0  0  0  0  0
    4.0630   -4.0630    0.0000 C   0  0  0  0  0  0  0  0  0  0  0  0
    2.8730   -4.9762    0.0000 C   0  0  0  0  0  0  0  0  0  0  0  0
    1.4872   -5.5502    0.0000 C   0  0  0  0  0  0  0  0  0  0  0  0
   -0.0000   -5.7460    0.0000 C   0  0  0  0  0  0  0  0  0  0  0  0
   -1.4872   -5.5502    0.0000 C   0  0  0  0  0  0  0  0  0  0  0  0
   -2.8730   -4.9762    0.0000 C   0  0  0  0  0  0  0  0  0  0  0  0
   -4.0630   -4.0630    0.0000 C   0  0  0  0  0  0  0  0  0  0  0  0
   -4.9762   -2.8730    0.0000 C   0  0  0  0  0  0  0  0  0  0  0  0
   -5.5502   -1.4872    0.0000 C   0  0  0  0  0  0  0  0  0  0  0  0
   -5.7460    0.0000    0.0000 C   0  0  0  0  0  0  0  0  0  0  0  0
   -5.5502    1.4872    0.0000 C   0  0  0  0  0  0  0  0  0  0  0  0
   -4.9762    2.8730    0.0000 C   0  0  0  0  0  0  0  0  0  0  0  0
   -4.0630    4.0630    0.0000 C   0  0  0  0  0  0  0  0  0  0  0  0
   -2.8730    4.9762    0.0000 C   0  0  0  0  0  0  0  0  0  0  0  0
   -1.4872    5.5502    0.0000 C   0  0  0  0  0  0  0  0  0  0  0  0
    0.0000    5.7460    0.0000 C   0  0  0  0  0  0  0  0  0  0  0  0
    1.4872    5.5502    0.0000 C   0  0  0  0  0  0  0  0  0  0  0  0
    2.8730    4.9762    0.0000 C   0  0  0  0  0  0  0  0  0  0  0  0
    4.0630    4.0630    0.0000 C   0  0  0  0  0  0  0  0  0  0  0  0
    4.9762    2.8730    0.0000 C   0  0  0  0  0  0  0  0  0  0  0  0
    5.5502    1.4872    0.0000 C   0  0  0  0  0  0  0  0  0  0  0  0
  1  2  1  0
  2  3  2  0
  2  4  1  0
  4  5  1  0
  5  6  2  0
  6  7  1  0
  7  8  2  0
  8  9  1  0
  9 10  2  0
 10 11  1  0
 11 12  2  0
 12 13  1  0
 13 14  2  0
 14 15  1  0
 15 16  2  0
 16 17  1  0
 17 18  2  0
 18 19  1  0
 19 20  2  0
 20 21  1  0
 21 22  2  0
 22 23  1  0
 23 24  2  0
 24 25  1  0
 25 26  2  0
 26 27  1  0
 27 28  2  0
 28  5  1  0
M  END
>  <Title>  (1384) 
idACBFgen8

$$$$

     RDKit          2D

 18 19  0  0  0  0  0  0  0  0999 V2000
   -6.1608    4.7607    0.0000 C   0  0  0  0  0  0  0  0  0  0  0  0
   -4.6744    4.5593    0.0000 C   0  0  0  0  0  0  0  0  0  0  0  0
   -4.1473    5.9637    0.0000 C   0  0  0  0  0  0  0  0  0  0  0  0
   -3.0631    7.0003    0.0000 C   0  0  0  0  0  0  0  0  0  0  0  0
   -1.6365    7.4638    0.0000 C   0  0  0  0  0  0  0  0  0  0  0  0
   -0.1501    7.2625    0.0000 C   0  0  0  0  0  0  0  0  0  0  0  0
    1.1017    6.4361    0.0000 C   0  0  0  0  0  0  0  0  0  0  0  0
    1.8711    5.1484    0.0000 C   0  0  0  0  0  0  0  0  0  0  0  0
    2.0056    3.6545    0.0000 C   0  0  0  0  0  0  0  0  0  0  0  0
    1.4785    2.2501    0.0000 C   0  0  0  0  0  0  0  0  0  0  0  0
    0.3943    1.2135    0.0000 C   0  0  0  0  0  0  0  0  0  0  0  0
    1.2760    0.0000    0.0000 C   0  0  0  0  0  0  0  0  0  0  0  0
    0.3943   -1.2135    0.0000 C   0  0  0  0  0  0  0  0  0  0  0  0
   -1.0323   -0.7500    0.0000 C   0  0  0  0  0  0  0  0  0  0  0  0
   -1.0323    0.7500    0.0000 C   0  0  0  0  0  0  0  0  0  0  0  0
   -2.5187    0.9513    0.0000 C   0  0  0  0  0  0  0  0  0  0  0  0
   -3.7706    1.7777    0.0000 C   0  0  0  0  0  0  0  0  0  0  0  0
   -4.5399    3.0654    0.0000 C   0  0  0  0  0  0  0  0  0  0  0  0
  1  2  1  0
  2  3  2  0
  3  4  1  0
  4  5  2  0
  5  6  1  0
  6  7  2  0
  7  8  1  0
  8  9  2  0
  9 10  1  0
 10 11  2  0
 11 12  1  0
 12 13  2  0
 13 14  1  0
 14 15  2  0
 15 16  1  0
 16 17  1  0
 17 18  1  0
 18  2  1  0
 15 11  1  0
M  END
>  <Title>  (1385) 
idACBGgen8

$$$$

     RDKit          2D

 14 15  0  0  0  0  0  0  0  0999 V2000
    0.1699    6.6946    0.0000 C   0  0  0  0  0  0  0  0  0  0  0  0
    0.4212    5.2158    0.0000 C   0  0  0  0  0  0  0  0  0  0  0  0
    1.8836    4.8820    0.0000 C   0  0  0  0  0  0  0  0  0  0  0  0
    2.6816    3.6119    0.0000 C   0  0  0  0  0  0  0  0  0  0  0  0
    2.3478    2.1495    0.0000 C   0  0  0  0  0  0  0  0  0  0  0  0
    1.0777    1.3515    0.0000 C   0  0  0  0  0  0  0  0  0  0  0  0
    1.7286    0.0000    0.0000 C   0  0  0  0  0  0  0  0  0  0  0  0
    1.0777   -1.3515    0.0000 C   0  0  0  0  0  0  0  0  0  0  0  0
   -0.3846   -1.6852    0.0000 C   0  0  0  0  0  0  0  0  0  0  0  0
   -1.5574   -0.7500    0.0000 C   0  0  0  0  0  0  0  0  0  0  0  0
   -1.5574    0.7500    0.0000 C   0  0  0  0  0  0  0  0  0  0  0  0
   -0.3846    1.6852    0.0000 C   0  0  0  0  0  0  0  0  0  0  0  0
   -1.1827    2.9553    0.0000 C   0  0  0  0  0  0  0  0  0  0  0  0
   -0.8489    4.4177    0.0000 C   0  0  0  0  0  0  0  0  0  0  0  0
  1  2  1  0
  2  3  2  0
  3  4  1  0
  4  5  2  0
  5  6  2  0
  6  7  1  0
  7  8  2  0
  8  9  1  0
  9 10  2  0
 10 11  1  0
 11 12  2  0
 12 13  1  0
 13 14  1  0
 14  2  1  0
 12  6  1  0
M  END
>  <Title>  (1386) 
idACBHgen8

$$$$

     RDKit          2D

 38 43  0  0  0  0  0  0  0  0999 V2000
    3.0000    0.0000    0.0000 C   0  0  0  0  0  0  0  0  0  0  0  0
    1.5000    0.0000    0.0000 C   0  0  0  0  0  0  0  0  0  0  0  0
    0.7500   -1.2990    0.0000 C   0  0  0  0  0  0  0  0  0  0  0  0
   -0.7500   -1.2990    0.0000 C   0  0  0  0  0  0  0  0  0  0  0  0
   -1.5000    0.0000    0.0000 C   0  0  0  0  0  0  0  0  0  0  0  0
   -3.0000    0.0000    0.0000 C   0  0  0  0  0  0  0  0  0  0  0  0
   -3.8817   -1.2135    0.0000 N   0  0  0  0  0  0  0  0  0  0  0  0
   -5.3083   -0.7500    0.0000 N   0  0  0  0  0  0  0  0  0  0  0  0
   -5.3083    0.7500    0.0000 N   0  0  0  0  0  0  0  0  0  0  0  0
   -3.8817    1.2135    0.0000 N   0  0  0  0  0  0  0  0  0  0  0  0
   -3.4182    2.6401    0.0000 C   0  0  0  0  0  0  0  0  0  0  0  0
   -1.9509    2.9520    0.0000 C   0  0  0  0  0  0  0  0  0  0  0  0
   -1.4874    4.3786    0.0000 C   0  0  0  0  0  0  0  0  0  0  0  0
   -2.4911    5.4933    0.0000 C   0  0  0  0  0  0  0  0  0  0  0  0
   -2.0276    6.9199    0.0000 C   0  0  0  0  0  0  0  0  0  0  0  0
   -2.9093    8.1334    0.0000 N   0  0  0  0  0  0  0  0  0  0  0  0
   -2.0276    9.3469    0.0000 N   0  0  0  0  0  0  0  0  0  0  0  0
   -0.6010    8.8834    0.0000 N   0  0  0  0  0  0  0  0  0  0  0  0
   -0.6010    7.3834    0.0000 N   0  0  0  0  0  0  0  0  0  0  0  0
    0.6125    6.5017    0.0000 C   0  0  0  0  0  0  0  0  0  0  0  0
    0.6125    5.0017    0.0000 N   0  0  0  0  0  0  0  0  0  0  0  0
    2.0391    4.5382    0.0000 N   0  0  0  0  0  0  0  0  0  0  0  0
    2.9208    5.7517    0.0000 N   0  0  0  0  0  0  0  0  0  0  0  0
    2.0391    6.9652    0.0000 N   0  0  0  0  0  0  0  0  0  0  0  0
    2.5026    8.3918    0.0000 C   0  0  0  0  0  0  0  0  0  0  0  0
    1.4989    9.5065    0.0000 C   0  0  0  0  0  0  0  0  0  0  0  0
    1.9625   10.9331    0.0000 C   0  0  0  0  0  0  0  0  0  0  0  0
    3.4297   11.2450    0.0000 C   0  0  0  0  0  0  0  0  0  0  0  0
    3.8932   12.6716    0.0000 C   0  0  0  0  0  0  0  0  0  0  0  0
    5.3604   12.9834    0.0000 O   0  0  0  0  0  0  0  0  0  0  0  0
    2.8895   13.7863    0.0000 N   0  0  0  0  0  0  0  0  0  0  0  0
    3.3531   15.2129    0.0000 O   0  0  0  0  0  0  0  0  0  0  0  0
    4.4334   10.1303    0.0000 C   0  0  0  0  0  0  0  0  0  0  0  0
    3.9699    8.7037    0.0000 C   0  0  0  0  0  0  0  0  0  0  0  0
   -3.9583    5.1814    0.0000 C   0  0  0  0  0  0  0  0  0  0  0  0
   -4.4218    3.7548    0.0000 C   0  0  0  0  0  0  0  0  0  0  0  0
   -0.7500    1.2990    0.0000 N   0  0  0  0  0  0  0  0  0  0  0  0
    0.7500    1.2990    0.0000 N   0  0  0  0  0  0  0  0  0  0  0  0
  1  2  1  0
  2  3  2  0
  3  4  1  0
  4  5  2  0
  5  6  1  0
  6  7  2  0
  7  8  1  0
  8  9  2  0
  9 10  1  0
 10 11  1  0
 11 12  2  0
 12 13  1  0
 13 14  2  0
 14 15  1  0
 15 16  2  0
 16 17  1  0
 17 18  2  0
 18 19  1  0
 19 20  1  0
 20 21  2  0
 21 22  1  0
 22 23  2  0
 23 24  1  0
 24 25  1  0
 25 26  2  0
 26 27  1  0
 27 28  2  0
 28 29  1  0
 29 30  2  0
 29 31  1  0
 31 32  1  0
 28 33  1  0
 33 34  1  0
 14 35  1  0
 35 36  2  0
  5 37  1  0
 37 38  2  0
 38  2  1  0
 10  6  1  0
 36 11  1  0
 19 15  1  0
 24 20  1  0
 34 25  1  0
M  END
>  <Title>  (1387) 
idACBIgen8

$$$$

     RDKit          2D

 11 12  0  0  0  0  0  0  0  0999 V2000
   -2.6380    5.6918    0.0000 C   0  0  0  0  0  0  0  0  0  0  0  0
   -2.9499    4.2246    0.0000 O   0  0  0  0  0  0  0  0  0  0  0  0
   -1.8351    3.2209    0.0000 C   0  0  0  0  0  0  0  0  0  0  0  0
   -0.4086    3.6844    0.0000 C   0  0  0  0  0  0  0  0  0  0  0  0
    0.7062    2.6807    0.0000 C   0  0  0  0  0  0  0  0  0  0  0  0
    0.3943    1.2135    0.0000 C   0  0  0  0  0  0  0  0  0  0  0  0
    1.2760    0.0000    0.0000 C   0  0  0  0  0  0  0  0  0  0  0  0
    0.3943   -1.2135    0.0000 C   0  0  0  0  0  0  0  0  0  0  0  0
   -1.0323   -0.7500    0.0000 C   0  0  0  0  0  0  0  0  0  0  0  0
   -1.0323    0.7500    0.0000 C   0  0  0  0  0  0  0  0  0  0  0  0
   -2.1470    1.7537    0.0000 C   0  0  0  0  0  0  0  0  0  0  0  0
  1  2  1  0
  2  3  1  0
  3  4  2  0
  4  5  1  0
  5  6  2  0
  6  7  1  0
  7  8  2  0
  8  9  1  0
  9 10  2  0
 10 11  1  0
 11  3  1  0
 10  6  1  0
M  END
>  <Title>  (1388) 
idACBJgen8

$$$$

     RDKit          2D

 57 65  0  0  0  0  0  0  0  0999 V2000
   14.8135    5.7466    0.0000 C   0  0  0  0  0  0  0  0  0  0  0  0
   13.7293    4.7100    0.0000 C   0  0  0  0  0  0  0  0  0  0  0  0
   12.3250    5.2371    0.0000 C   0  0  0  0  0  0  0  0  0  0  0  0
   11.0373    4.4677    0.0000 C   0  0  0  0  0  0  0  0  0  0  0  0
   10.8360    2.9813    0.0000 C   0  0  0  0  0  0  0  0  0  0  0  0
    9.4094    2.5178    0.0000 C   0  0  0  0  0  0  0  0  0  0  0  0
    8.9458    1.0912    0.0000 N   0  0  0  0  0  0  0  0  0  0  0  0
    7.4458    1.0912    0.0000 N   0  0  0  0  0  0  0  0  0  0  0  0
    6.9823    2.5178    0.0000 N   0  0  0  0  0  0  0  0  0  0  0  0
    8.1958    3.3995    0.0000 N   0  0  0  0  0  0  0  0  0  0  0  0
    8.1958    4.8995    0.0000 C   0  0  0  0  0  0  0  0  0  0  0  0
    9.4094    5.7812    0.0000 N   0  0  0  0  0  0  0  0  0  0  0  0
    8.9458    7.2077    0.0000 N   0  0  0  0  0  0  0  0  0  0  0  0
    7.4458    7.2077    0.0000 N   0  0  0  0  0  0  0  0  0  0  0  0
    6.9823    5.7812    0.0000 N   0  0  0  0  0  0  0  0  0  0  0  0
    5.5557    5.3176    0.0000 C   0  0  0  0  0  0  0  0  0  0  0  0
    4.4410    6.3213    0.0000 C   0  0  0  0  0  0  0  0  0  0  0  0
    3.0144    5.8578    0.0000 C   0  0  0  0  0  0  0  0  0  0  0  0
    2.7026    4.3906    0.0000 C   0  0  0  0  0  0  0  0  0  0  0  0
    1.2760    3.9271    0.0000 C   0  0  0  0  0  0  0  0  0  0  0  0
    0.3943    5.1406    0.0000 C   0  0  0  0  0  0  0  0  0  0  0  0
   -1.0323    5.6041    0.0000 C   0  0  0  0  0  0  0  0  0  0  0  0
   -2.4589    5.1406    0.0000 C   0  0  0  0  0  0  0  0  0  0  0  0
   -3.3405    3.9271    0.0000 C   0  0  0  0  0  0  0  0  0  0  0  0
   -3.3405    2.4271    0.0000 C   0  0  0  0  0  0  0  0  0  0  0  0
   -2.4589    1.2135    0.0000 C   0  0  0  0  0  0  0  0  0  0  0  0
   -2.0543    2.5789    0.0000 C   0  0  0  0  0  0  0  0  0  0  0  0
   -1.9748    2.7198    0.0000 C   0  0  0  0  0  0  0  0  0  0  0  0
   -1.4569    4.2978    0.0000 C   0  0  0  0  0  0  0  0  0  0  0  0
   -1.2082    4.2836    0.0000 C   0  0  0  0  0  0  0  0  0  0  0  0
   -0.6433    5.9327    0.0000 C   0  0  0  0  0  0  0  0  0  0  0  0
   -0.1506    6.8176    0.0000 C   0  0  0  0  0  0  0  0  0  0  0  0
    1.2760    6.3541    0.0000 N   0  0  0  0  0  0  0  0  0  0  0  0
    2.1577    5.1406    0.0000 N   0  0  0  0  0  0  0  0  0  0  0  0
    2.1577    3.6406    0.0000 N   0  0  0  0  0  0  0  0  0  0  0  0
    1.2760    2.4271    0.0000 N   0  0  0  0  0  0  0  0  0  0  0  0
    0.3943    1.2135    0.0000 C   0  0  0  0  0  0  0  0  0  0  0  0
    1.2760    0.0000    0.0000 N   0  0  0  0  0  0  0  0  0  0  0  0
    0.3943   -1.2135    0.0000 N   0  0  0  0  0  0  0  0  0  0  0  0
   -1.0323   -0.7500    0.0000 N   0  0  0  0  0  0  0  0  0  0  0  0
   -1.0323    0.7500    0.0000 N   0  0  0  0  0  0  0  0  0  0  0  0
   -1.5772    6.3541    0.0000 C   0  0  0  0  0  0  0  0  0  0  0  0
    3.8173    3.3869    0.0000 C   0  0  0  0  0  0  0  0  0  0  0  0
    5.2439    3.8504    0.0000 C   0  0  0  0  0  0  0  0  0  0  0  0
   11.8725    1.8971    0.0000 N   0  0  0  0  0  0  0  0  0  0  0  0
   11.3455    0.4928    0.0000 C   0  0  0  0  0  0  0  0  0  0  0  0
    9.8657    0.2471    0.0000 C   0  0  0  0  0  0  0  0  0  0  0  0
    9.3387   -1.1573    0.0000 C   0  0  0  0  0  0  0  0  0  0  0  0
   10.2914   -2.3159    0.0000 C   0  0  0  0  0  0  0  0  0  0  0  0
    9.7643   -3.7203    0.0000 C   0  0  0  0  0  0  0  0  0  0  0  0
   10.7170   -4.8789    0.0000 O   0  0  0  0  0  0  0  0  0  0  0  0
    8.2846   -3.9660    0.0000 N   0  0  0  0  0  0  0  0  0  0  0  0
    7.7575   -5.3704    0.0000 O   0  0  0  0  0  0  0  0  0  0  0  0
   11.7711   -2.0702    0.0000 C   0  0  0  0  0  0  0  0  0  0  0  0
   12.2982   -0.6658    0.0000 C   0  0  0  0  0  0  0  0  0  0  0  0
   13.3665    2.0316    0.0000 C   0  0  0  0  0  0  0  0  0  0  0  0
   14.1929    3.2834    0.0000 C   0  0  0  0  0  0  0  0  0  0  0  0
  1  2  1  0
  2  3  2  0
  3  4  1  0
  4  5  2  0
  5  6  1  0
  6  7  2  0
  7  8  1  0
  8  9  2  0
  9 10  1  0
 10 11  1  0
 11 12  2  0
 12 13  1  0
 13 14  2  0
 14 15  1  0
 15 16  1  0
 16 17  2  0
 17 18  1  0
 18 19  2  0
 19 20  1  0
 20 21  2  0
 21 22  1  0
 22 23  2  0
 23 24  1  0
 24 25  2  0
 25 26  1  0
 26 27  2  0
 27 28  1  0
 28 29  2  0
 29 30  1  0
 30 31  2  0
 31 32  1  0
 32 33  2  0
 33 34  1  0
 34 35  2  0
 35 36  1  0
 36 37  1  0
 37 38  2  0
 38 39  1  0
 39 40  2  0
 40 41  1  0
 32 42  1  0
 19 43  1  0
 43 44  2  0
  5 45  1  0
 45 46  1  0
 46 47  2  0
 47 48  1  0
 48 49  2  0
 49 50  1  0
 50 51  2  0
 50 52  1  0
 52 53  1  0
 49 54  1  0
 54 55  1  0
 45 56  1  0
 56 57  2  0
 57  2  1  0
 10  6  1  0
 15 11  1  0
 44 16  1  0
 55 46  1  0
 36 20  1  0
 41 37  1  0
 42 23  1  0
 41 26  1  0
M  END
>  <Title>  (1389) 
idACBKgen8

$$$$

     RDKit          2D

 24 24  0  0  0  0  0  0  0  0999 V2000
    7.0080   -0.0000    0.0000 C   0  0  0  0  0  0  0  0  0  0  0  0
    5.5080    0.0000    0.0000 C   0  0  0  0  0  0  0  0  0  0  0  0
    5.3037    1.4860    0.0000 C   0  0  0  0  0  0  0  0  0  0  0  0
    4.7061    2.8618    0.0000 C   0  0  0  0  0  0  0  0  0  0  0  0
    3.7595    4.0254    0.0000 C   0  0  0  0  0  0  0  0  0  0  0  0
    2.5340    4.8904    0.0000 N   0  0  0  0  0  0  0  0  0  0  0  0
    1.1206    5.3928    0.0000 C   0  0  0  0  0  0  0  0  0  0  0  0
   -0.3759    5.4951    0.0000 C   0  0  0  0  0  0  0  0  0  0  0  0
   -1.8445    5.1899    0.0000 C   0  0  0  0  0  0  0  0  0  0  0  0
   -3.1763    4.4998    0.0000 C   0  0  0  0  0  0  0  0  0  0  0  0
   -4.2726    3.4760    0.0000 C   0  0  0  0  0  0  0  0  0  0  0  0
   -5.0520    2.1944    0.0000 C   0  0  0  0  0  0  0  0  0  0  0  0
   -5.4567    0.7500    0.0000 C   0  0  0  0  0  0  0  0  0  0  0  0
   -5.4567   -0.7500    0.0000 C   0  0  0  0  0  0  0  0  0  0  0  0
   -5.0520   -2.1944    0.0000 C   0  0  0  0  0  0  0  0  0  0  0  0
   -4.2726   -3.4760    0.0000 C   0  0  0  0  0  0  0  0  0  0  0  0
   -3.1763   -4.4998    0.0000 C   0  0  0  0  0  0  0  0  0  0  0  0
   -1.8445   -5.1899    0.0000 C   0  0  0  0  0  0  0  0  0  0  0  0
   -0.3759   -5.4951    0.0000 C   0  0  0  0  0  0  0  0  0  0  0  0
    1.1206   -5.3928    0.0000 C   0  0  0  0  0  0  0  0  0  0  0  0
    2.5340   -4.8904    0.0000 C   0  0  0  0  0  0  0  0  0  0  0  0
    3.7595   -4.0254    0.0000 C   0  0  0  0  0  0  0  0  0  0  0  0
    4.7061   -2.8618    0.0000 C   0  0  0  0  0  0  0  0  0  0  0  0
    5.3037   -1.4860    0.0000 C   0  0  0  0  0  0  0  0  0  0  0  0
  1  2  1  0
  2  3  2  0
  3  4  1  0
  4  5  2  0
  5  6  2  0
  6  7  1  0
  7  8  2  0
  8  9  1  0
  9 10  2  0
 10 11  1  0
 11 12  2  0
 12 13  1  0
 13 14  2  0
 14 15  1  0
 15 16  2  0
 16 17  1  0
 17 18  2  0
 18 19  1  0
 19 20  2  0
 20 21  1  0
 21 22  2  0
 22 23  1  0
 23 24  2  0
 24  2  1  0
M  END
>  <Title>  (1390) 
idACBLgen8

$$$$

     RDKit          2D

 37 42  0  0  0  0  0  0  0  0999 V2000
    3.4598   -0.0000    0.0000 C   0  0  0  0  0  0  0  0  0  0  0  0
    1.9598    0.0000    0.0000 C   0  0  0  0  0  0  0  0  0  0  0  0
    1.3858   -1.3858    0.0000 C   0  0  0  0  0  0  0  0  0  0  0  0
   -0.0000   -1.9598    0.0000 C   0  0  0  0  0  0  0  0  0  0  0  0
   -1.3858   -1.3858    0.0000 C   0  0  0  0  0  0  0  0  0  0  0  0
   -1.9598    0.0000    0.0000 C   0  0  0  0  0  0  0  0  0  0  0  0
   -3.4598    0.0000    0.0000 C   0  0  0  0  0  0  0  0  0  0  0  0
   -4.3415   -1.2135    0.0000 N   0  0  0  0  0  0  0  0  0  0  0  0
   -5.7681   -0.7500    0.0000 N   0  0  0  0  0  0  0  0  0  0  0  0
   -5.7681    0.7500    0.0000 N   0  0  0  0  0  0  0  0  0  0  0  0
   -4.3415    1.2135    0.0000 N   0  0  0  0  0  0  0  0  0  0  0  0
   -3.8780    2.6401    0.0000 N   0  0  0  0  0  0  0  0  0  0  0  0
   -2.4108    2.9520    0.0000 N   0  0  0  0  0  0  0  0  0  0  0  0
   -1.9472    4.3786    0.0000 N   0  0  0  0  0  0  0  0  0  0  0  0
   -2.9509    5.4933    0.0000 N   0  0  0  0  0  0  0  0  0  0  0  0
   -4.4182    5.1814    0.0000 N   0  0  0  0  0  0  0  0  0  0  0  0
   -4.8817    3.7548    0.0000 N   0  0  0  0  0  0  0  0  0  0  0  0
   -6.3489    3.4430    0.0000 C   0  0  0  0  0  0  0  0  0  0  0  0
   -7.3526    4.5577    0.0000 C   0  0  0  0  0  0  0  0  0  0  0  0
   -8.8198    4.2458    0.0000 C   0  0  0  0  0  0  0  0  0  0  0  0
   -9.2834    2.8192    0.0000 C   0  0  0  0  0  0  0  0  0  0  0  0
  -10.7506    2.5074    0.0000 C   0  0  0  0  0  0  0  0  0  0  0  0
  -11.3607    1.1370    0.0000 N   0  0  0  0  0  0  0  0  0  0  0  0
  -12.8525    1.2938    0.0000 N   0  0  0  0  0  0  0  0  0  0  0  0
  -13.1643    2.7611    0.0000 N   0  0  0  0  0  0  0  0  0  0  0  0
  -11.8653    3.5111    0.0000 N   0  0  0  0  0  0  0  0  0  0  0  0
  -11.7085    5.0028    0.0000 C   0  0  0  0  0  0  0  0  0  0  0  0
  -10.3382    5.6129    0.0000 C   0  0  0  0  0  0  0  0  0  0  0  0
  -10.1814    7.1047    0.0000 C   0  0  0  0  0  0  0  0  0  0  0  0
  -11.3949    7.9864    0.0000 C   0  0  0  0  0  0  0  0  0  0  0  0
  -12.7652    7.3763    0.0000 C   0  0  0  0  0  0  0  0  0  0  0  0
  -12.9220    5.8845    0.0000 C   0  0  0  0  0  0  0  0  0  0  0  0
   -8.2797    1.7045    0.0000 C   0  0  0  0  0  0  0  0  0  0  0  0
   -6.8124    2.0164    0.0000 C   0  0  0  0  0  0  0  0  0  0  0  0
   -1.3858    1.3858    0.0000 N   0  0  0  0  0  0  0  0  0  0  0  0
    0.0000    1.9598    0.0000 N   0  0  0  0  0  0  0  0  0  0  0  0
    1.3858    1.3858    0.0000 N   0  0  0  0  0  0  0  0  0  0  0  0
  1  2  1  0
  2  3  2  0
  3  4  1  0
  4  5  2  0
  5  6  2  0
  6  7  1  0
  7  8  2  0
  8  9  1  0
  9 10  2  0
 10 11  1  0
 11 12  1  0
 12 13  1  0
 13 14  2  0
 14 15  1  0
 15 16  2  0
 16 17  1  0
 17 18  1  0
 18 19  2  0
 19 20  1  0
 20 21  2  0
 21 22  1  0
 22 23  2  0
 23 24  1  0
 24 25  2  0
 25 26  1  0
 26 27  1  0
 27 28  2  0
 28 29  1  0
 29 30  2  0
 30 31  1  0
 31 32  2  0
 21 33  1  0
 33 34  2  0
  6 35  1  0
 35 36  2  0
 36 37  1  0
 37  2  1  0
 11  7  1  0
 17 12  1  0
 34 18  1  0
 26 22  1  0
 32 27  1  0
M  END
>  <Title>  (1391) 
idACBMgen8

$$$$

     RDKit          2D

 39 44  0  0  0  0  0  0  0  0999 V2000
    3.0000    0.0000    0.0000 C   0  0  0  0  0  0  0  0  0  0  0  0
    1.5000    0.0000    0.0000 C   0  0  0  0  0  0  0  0  0  0  0  0
    0.7500   -1.2990    0.0000 C   0  0  0  0  0  0  0  0  0  0  0  0
   -0.7500   -1.2990    0.0000 C   0  0  0  0  0  0  0  0  0  0  0  0
   -1.5000    0.0000    0.0000 C   0  0  0  0  0  0  0  0  0  0  0  0
   -3.0000    0.0000    0.0000 C   0  0  0  0  0  0  0  0  0  0  0  0
   -3.8817   -1.2135    0.0000 N   0  0  0  0  0  0  0  0  0  0  0  0
   -5.3083   -0.7500    0.0000 N   0  0  0  0  0  0  0  0  0  0  0  0
   -5.3083    0.7500    0.0000 N   0  0  0  0  0  0  0  0  0  0  0  0
   -3.8817    1.2135    0.0000 N   0  0  0  0  0  0  0  0  0  0  0  0
   -3.4182    2.6401    0.0000 C   0  0  0  0  0  0  0  0  0  0  0  0
   -1.9509    2.9520    0.0000 C   0  0  0  0  0  0  0  0  0  0  0  0
   -1.4874    4.3786    0.0000 C   0  0  0  0  0  0  0  0  0  0  0  0
   -2.4911    5.4933    0.0000 N   0  0  0  0  0  0  0  0  0  0  0  0
   -2.0276    6.9199    0.0000 C   0  0  0  0  0  0  0  0  0  0  0  0
   -2.9093    8.1334    0.0000 C   0  0  0  0  0  0  0  0  0  0  0  0
   -2.0276    9.3469    0.0000 N   0  0  0  0  0  0  0  0  0  0  0  0
   -0.6010    8.8834    0.0000 N   0  0  0  0  0  0  0  0  0  0  0  0
   -0.6010    7.3834    0.0000 N   0  0  0  0  0  0  0  0  0  0  0  0
    0.6125    6.5017    0.0000 C   0  0  0  0  0  0  0  0  0  0  0  0
    0.6125    5.0017    0.0000 C   0  0  0  0  0  0  0  0  0  0  0  0
    2.0391    4.5382    0.0000 N   0  0  0  0  0  0  0  0  0  0  0  0
    2.9208    5.7517    0.0000 N   0  0  0  0  0  0  0  0  0  0  0  0
    2.0391    6.9652    0.0000 N   0  0  0  0  0  0  0  0  0  0  0  0
    2.5026    8.3918    0.0000 C   0  0  0  0  0  0  0  0  0  0  0  0
    1.4989    9.5065    0.0000 C   0  0  0  0  0  0  0  0  0  0  0  0
    1.9625   10.9331    0.0000 C   0  0  0  0  0  0  0  0  0  0  0  0
    3.4297   11.2450    0.0000 C   0  0  0  0  0  0  0  0  0  0  0  0
    3.8932   12.6716    0.0000 C   0  0  0  0  0  0  0  0  0  0  0  0
    5.3604   12.9834    0.0000 O   0  0  0  0  0  0  0  0  0  0  0  0
    2.8895   13.7863    0.0000 N   0  0  0  0  0  0  0  0  0  0  0  0
    3.3531   15.2129    0.0000 O   0  0  0  0  0  0  0  0  0  0  0  0
    4.4334   10.1303    0.0000 C   0  0  0  0  0  0  0  0  0  0  0  0
    3.9699    8.7037    0.0000 C   0  0  0  0  0  0  0  0  0  0  0  0
   -3.9583    5.1814    0.0000 C   0  0  0  0  0  0  0  0  0  0  0  0
   -4.9620    6.2961    0.0000 O   0  0  0  0  0  0  0  0  0  0  0  0
   -4.4218    3.7548    0.0000 N   0  0  0  0  0  0  0  0  0  0  0  0
   -0.7500    1.2990    0.0000 N   0  0  0  0  0  0  0  0  0  0  0  0
    0.7500    1.2990    0.0000 N   0  0  0  0  0  0  0  0  0  0  0  0
  1  2  1  0
  2  3  2  0
  3  4  1  0
  4  5  2  0
  5  6  1  0
  6  7  2  0
  7  8  1  0
  8  9  2  0
  9 10  1  0
 10 11  1  0
 11 12  1  0
 12 13  1  0
 13 14  1  0
 14 15  1  0
 15 16  2  0
 16 17  1  0
 17 18  2  0
 18 19  1  0
 19 20  1  0
 20 21  2  0
 21 22  1  0
 22 23  2  0
 23 24  1  0
 24 25  1  0
 25 26  2  0
 26 27  1  0
 27 28  2  0
 28 29  1  0
 29 30  2  0
 29 31  1  0
 31 32  1  0
 28 33  1  0
 33 34  1  0
 14 35  1  0
 35 36  2  0
 35 37  1  0
  5 38  1  0
 38 39  2  0
 39  2  1  0
 10  6  1  0
 37 11  1  0
 19 15  1  0
 24 20  1  0
 34 25  1  0
M  END
>  <Title>  (1392) 
idACBNgen8

$$$$

     RDKit          2D

 35 36  0  0  0  0  0  0  0  0999 V2000
   -2.8104    1.8037    0.0000 C   0  0  0  0  0  0  0  0  0  0  0  0
   -2.9672    0.3119    0.0000 C   0  0  0  0  0  0  0  0  0  0  0  0
   -4.4672    0.3119    0.0000 C   0  0  0  0  0  0  0  0  0  0  0  0
   -5.9344   -0.0000    0.0000 C   0  0  0  0  0  0  0  0  0  0  0  0
   -7.3048   -0.6101    0.0000 C   0  0  0  0  0  0  0  0  0  0  0  0
   -8.5183   -1.4918    0.0000 C   0  0  0  0  0  0  0  0  0  0  0  0
   -9.5220   -2.6065    0.0000 C   0  0  0  0  0  0  0  0  0  0  0  0
  -10.2720   -3.9055    0.0000 C   0  0  0  0  0  0  0  0  0  0  0  0
  -10.7355   -5.3321    0.0000 C   0  0  0  0  0  0  0  0  0  0  0  0
  -10.8923   -6.8239    0.0000 C   0  0  0  0  0  0  0  0  0  0  0  0
  -10.7355   -8.3157    0.0000 C   0  0  0  0  0  0  0  0  0  0  0  0
  -10.2720   -9.7423    0.0000 C   0  0  0  0  0  0  0  0  0  0  0  0
   -9.5220  -11.0413    0.0000 C   0  0  0  0  0  0  0  0  0  0  0  0
   -8.5183  -12.1560    0.0000 C   0  0  0  0  0  0  0  0  0  0  0  0
   -7.3048  -13.0377    0.0000 C   0  0  0  0  0  0  0  0  0  0  0  0
   -5.9344  -13.6478    0.0000 C   0  0  0  0  0  0  0  0  0  0  0  0
   -4.4672  -13.9597    0.0000 C   0  0  0  0  0  0  0  0  0  0  0  0
   -2.9672  -13.9597    0.0000 C   0  0  0  0  0  0  0  0  0  0  0  0
   -1.5000  -13.6478    0.0000 C   0  0  0  0  0  0  0  0  0  0  0  0
   -0.1297  -13.0377    0.0000 C   0  0  0  0  0  0  0  0  0  0  0  0
    1.0838  -12.1560    0.0000 C   0  0  0  0  0  0  0  0  0  0  0  0
    2.0875  -11.0413    0.0000 C   0  0  0  0  0  0  0  0  0  0  0  0
    2.8375   -9.7423    0.0000 C   0  0  0  0  0  0  0  0  0  0  0  0
    3.3011   -8.3157    0.0000 C   0  0  0  0  0  0  0  0  0  0  0  0
    3.4579   -6.8239    0.0000 C   0  0  0  0  0  0  0  0  0  0  0  0
    3.3011   -5.3321    0.0000 C   0  0  0  0  0  0  0  0  0  0  0  0
    2.8375   -3.9055    0.0000 C   0  0  0  0  0  0  0  0  0  0  0  0
    2.0875   -2.6065    0.0000 C   0  0  0  0  0  0  0  0  0  0  0  0
    0.7500   -1.2990    0.0000 C   0  0  0  0  0  0  0  0  0  0  0  0
    1.5000    0.0000    0.0000 C   0  0  0  0  0  0  0  0  0  0  0  0
    0.7500    1.2990    0.0000 C   0  0  0  0  0  0  0  0  0  0  0  0
   -0.7500    1.2990    0.0000 C   0  0  0  0  0  0  0  0  0  0  0  0
   -1.5000    0.0000    0.0000 C   0  0  0  0  0  0  0  0  0  0  0  0
   -0.7500   -1.2990    0.0000 C   0  0  0  0  0  0  0  0  0  0  0  0
   -1.5000   -2.5981    0.0000 O   0  0  0  0  0  0  0  0  0  0  0  0
  1  2  1  0
  2  3  2  0
  3  4  1  0
  4  5  2  0
  5  6  1  0
  6  7  2  0
  7  8  1  0
  8  9  2  0
  9 10  1  0
 10 11  2  0
 11 12  1  0
 12 13  2  0
 13 14  1  0
 14 15  2  0
 15 16  1  0
 16 17  2  0
 17 18  1  0
 18 19  2  0
 19 20  1  0
 20 21  2  0
 21 22  1  0
 22 23  2  0
 23 24  1  0
 24 25  2  0
 25 26  1  0
 26 27  2  0
 27 28  1  0
 28 29  2  0
 29 30  1  0
 30 31  2  0
 31 32  1  0
 32 33  2  0
 33 34  1  0
 34 35  2  0
 33  2  1  0
 34 29  1  0
M  END
>  <Title>  (1393) 
idACBOgen8

$$$$

     RDKit          2D

 11 11  0  0  0  0  0  0  0  0999 V2000
    5.4786   -1.2990    0.0000 C   0  0  0  0  0  0  0  0  0  0  0  0
    3.9786   -1.2990    0.0000 C   0  0  0  0  0  0  0  0  0  0  0  0
    3.2286   -2.5981    0.0000 O   0  0  0  0  0  0  0  0  0  0  0  0
    3.2286   -0.0000    0.0000 N   0  0  0  0  0  0  0  0  0  0  0  0
    1.7286    0.0000    0.0000 C   0  0  0  0  0  0  0  0  0  0  0  0
    1.0777    1.3515    0.0000 C   0  0  0  0  0  0  0  0  0  0  0  0
   -0.3846    1.6852    0.0000 C   0  0  0  0  0  0  0  0  0  0  0  0
   -1.5574    0.7500    0.0000 C   0  0  0  0  0  0  0  0  0  0  0  0
   -1.5574   -0.7500    0.0000 C   0  0  0  0  0  0  0  0  0  0  0  0
   -0.3846   -1.6852    0.0000 C   0  0  0  0  0  0  0  0  0  0  0  0
    1.0777   -1.3515    0.0000 C   0  0  0  0  0  0  0  0  0  0  0  0
  1  2  1  0
  2  3  2  0
  2  4  1  0
  4  5  1  0
  5  6  2  0
  6  7  1  0
  7  8  2  0
  8  9  1  0
  9 10  2  0
 10 11  1  0
 11  5  1  0
M  END
>  <Title>  (1394) 
idACBPgen8

$$$$

     RDKit          2D

 41 42  0  0  0  0  0  0  0  0999 V2000
   -5.2296    3.1508    0.0000 C   0  0  0  0  0  0  0  0  0  0  0  0
   -4.1000    4.1377    0.0000 C   0  0  0  0  0  0  0  0  0  0  0  0
   -4.9817    5.3512    0.0000 C   0  0  0  0  0  0  0  0  0  0  0  0
   -5.6325    6.7027    0.0000 C   0  0  0  0  0  0  0  0  0  0  0  0
   -6.0315    8.1486    0.0000 C   0  0  0  0  0  0  0  0  0  0  0  0
   -6.1660    9.6426    0.0000 C   0  0  0  0  0  0  0  0  0  0  0  0
   -6.0315   11.1366    0.0000 C   0  0  0  0  0  0  0  0  0  0  0  0
   -5.6325   12.5825    0.0000 C   0  0  0  0  0  0  0  0  0  0  0  0
   -4.9817   13.9340    0.0000 C   0  0  0  0  0  0  0  0  0  0  0  0
   -4.1000   15.1475    0.0000 C   0  0  0  0  0  0  0  0  0  0  0  0
   -3.0158   16.1841    0.0000 C   0  0  0  0  0  0  0  0  0  0  0  0
   -1.7639   17.0104    0.0000 C   0  0  0  0  0  0  0  0  0  0  0  0
   -0.3846   17.6000    0.0000 C   0  0  0  0  0  0  0  0  0  0  0  0
    1.0777   17.9337    0.0000 C   0  0  0  0  0  0  0  0  0  0  0  0
    2.5762   18.0010    0.0000 C   0  0  0  0  0  0  0  0  0  0  0  0
    4.0627   17.7997    0.0000 C   0  0  0  0  0  0  0  0  0  0  0  0
    5.4892   17.3362    0.0000 C   0  0  0  0  0  0  0  0  0  0  0  0
    6.8101   16.6254    0.0000 C   0  0  0  0  0  0  0  0  0  0  0  0
    7.9829   15.6901    0.0000 C   0  0  0  0  0  0  0  0  0  0  0  0
    8.9698   14.5605    0.0000 C   0  0  0  0  0  0  0  0  0  0  0  0
    9.7391   13.2728    0.0000 C   0  0  0  0  0  0  0  0  0  0  0  0
   10.2662   11.8685    0.0000 C   0  0  0  0  0  0  0  0  0  0  0  0
   10.5340   10.3926    0.0000 C   0  0  0  0  0  0  0  0  0  0  0  0
   10.5340    8.8926    0.0000 C   0  0  0  0  0  0  0  0  0  0  0  0
   10.2662    7.4167    0.0000 C   0  0  0  0  0  0  0  0  0  0  0  0
    9.7391    6.0123    0.0000 C   0  0  0  0  0  0  0  0  0  0  0  0
    8.9698    4.7247    0.0000 C   0  0  0  0  0  0  0  0  0  0  0  0
    7.9829    3.5951    0.0000 C   0  0  0  0  0  0  0  0  0  0  0  0
    6.8101    2.6598    0.0000 C   0  0  0  0  0  0  0  0  0  0  0  0
    5.4892    1.9490    0.0000 C   0  0  0  0  0  0  0  0  0  0  0  0
    4.0627    1.4855    0.0000 C   0  0  0  0  0  0  0  0  0  0  0  0
    2.5762    1.2842    0.0000 C   0  0  0  0  0  0  0  0  0  0  0  0
    1.0777    1.3515    0.0000 C   0  0  0  0  0  0  0  0  0  0  0  0
    1.7286    0.0000    0.0000 O   0  0  0  0  0  0  0  0  0  0  0  0
    1.0777   -1.3515    0.0000 C   0  0  0  0  0  0  0  0  0  0  0  0
   -0.3846   -1.6852    0.0000 C   0  0  0  0  0  0  0  0  0  0  0  0
   -1.5574   -0.7500    0.0000 C   0  0  0  0  0  0  0  0  0  0  0  0
   -1.5574    0.7500    0.0000 C   0  0  0  0  0  0  0  0  0  0  0  0
   -0.3846    1.6852    0.0000 C   0  0  0  0  0  0  0  0  0  0  0  0
   -1.7639    2.2748    0.0000 C   0  0  0  0  0  0  0  0  0  0  0  0
   -3.0158    3.1011    0.0000 C   0  0  0  0  0  0  0  0  0  0  0  0
  1  2  1  0
  2  3  2  0
  3  4  1  0
  4  5  2  0
  5  6  1  0
  6  7  2  0
  7  8  1  0
  8  9  2  0
  9 10  1  0
 10 11  2  0
 11 12  1  0
 12 13  2  0
 13 14  1  0
 14 15  2  0
 15 16  1  0
 16 17  2  0
 17 18  1  0
 18 19  2  0
 19 20  1  0
 20 21  2  0
 21 22  1  0
 22 23  2  0
 23 24  1  0
 24 25  2  0
 25 26  1  0
 26 27  2  0
 27 28  1  0
 28 29  2  0
 29 30  1  0
 30 31  2  0
 31 32  1  0
 32 33  2  0
 33 34  1  0
 34 35  1  0
 35 36  1  0
 36 37  2  0
 37 38  1  0
 38 39  2  0
 39 40  1  0
 40 41  2  0
 41  2  1  0
 39 33  1  0
M  END
>  <Title>  (1395) 
idACBQgen8

$$$$

     RDKit          2D

 14 14  0  0  0  0  0  0  0  0999 V2000
    5.1478   -1.2990    0.0000 C   0  0  0  0  0  0  0  0  0  0  0  0
    4.3978    0.0000    0.0000 O   0  0  0  0  0  0  0  0  0  0  0  0
    2.8978    0.0000    0.0000 C   0  0  0  0  0  0  0  0  0  0  0  0
    2.5095   -1.4489    0.0000 C   0  0  0  0  0  0  0  0  0  0  0  0
    1.4489   -2.5095    0.0000 C   0  0  0  0  0  0  0  0  0  0  0  0
   -0.0000   -2.8978    0.0000 C   0  0  0  0  0  0  0  0  0  0  0  0
   -1.4489   -2.5095    0.0000 C   0  0  0  0  0  0  0  0  0  0  0  0
   -2.5095   -1.4489    0.0000 C   0  0  0  0  0  0  0  0  0  0  0  0
   -2.8978    0.0000    0.0000 C   0  0  0  0  0  0  0  0  0  0  0  0
   -2.5095    1.4489    0.0000 C   0  0  0  0  0  0  0  0  0  0  0  0
   -1.4489    2.5095    0.0000 C   0  0  0  0  0  0  0  0  0  0  0  0
    0.0000    2.8978    0.0000 C   0  0  0  0  0  0  0  0  0  0  0  0
    1.4489    2.5095    0.0000 C   0  0  0  0  0  0  0  0  0  0  0  0
    2.5095    1.4489    0.0000 C   0  0  0  0  0  0  0  0  0  0  0  0
  1  2  1  0
  2  3  1  0
  3  4  2  0
  4  5  1  0
  5  6  2  0
  6  7  1  0
  7  8  2  0
  8  9  1  0
  9 10  2  0
 10 11  1  0
 11 12  2  0
 12 13  1  0
 13 14  2  0
 14  3  1  0
M  END
>  <Title>  (1396) 
idACBRgen8

$$$$

     RDKit          2D

 25 25  0  0  0  0  0  0  0  0999 V2000
    6.7700    0.0000    0.0000 C   0  0  0  0  0  0  0  0  0  0  0  0
    5.2700    0.0000    0.0000 C   0  0  0  0  0  0  0  0  0  0  0  0
    5.0565   -1.4847    0.0000 C   0  0  0  0  0  0  0  0  0  0  0  0
    4.4334   -2.8492    0.0000 C   0  0  0  0  0  0  0  0  0  0  0  0
    3.4511   -3.9828    0.0000 C   0  0  0  0  0  0  0  0  0  0  0  0
    2.1892   -4.7938    0.0000 C   0  0  0  0  0  0  0  0  0  0  0  0
    0.7500   -5.2164    0.0000 C   0  0  0  0  0  0  0  0  0  0  0  0
   -0.7500   -5.2164    0.0000 C   0  0  0  0  0  0  0  0  0  0  0  0
   -2.1892   -4.7938    0.0000 C   0  0  0  0  0  0  0  0  0  0  0  0
   -3.4511   -3.9828    0.0000 C   0  0  0  0  0  0  0  0  0  0  0  0
   -4.4334   -2.8492    0.0000 C   0  0  0  0  0  0  0  0  0  0  0  0
   -5.0565   -1.4847    0.0000 C   0  0  0  0  0  0  0  0  0  0  0  0
   -5.2700    0.0000    0.0000 C   0  0  0  0  0  0  0  0  0  0  0  0
   -5.0565    1.4847    0.0000 C   0  0  0  0  0  0  0  0  0  0  0  0
   -4.4334    2.8492    0.0000 C   0  0  0  0  0  0  0  0  0  0  0  0
   -3.4511    3.9828    0.0000 C   0  0  0  0  0  0  0  0  0  0  0  0
   -2.1892    4.7938    0.0000 C   0  0  0  0  0  0  0  0  0  0  0  0
   -0.7500    5.2164    0.0000 C   0  0  0  0  0  0  0  0  0  0  0  0
    0.7500    5.2164    0.0000 C   0  0  0  0  0  0  0  0  0  0  0  0
    2.1892    4.7938    0.0000 C   0  0  0  0  0  0  0  0  0  0  0  0
    3.4511    3.9828    0.0000 C   0  0  0  0  0  0  0  0  0  0  0  0
    4.4334    5.1164    0.0000 C   0  0  0  0  0  0  0  0  0  0  0  0
    4.4334    2.8492    0.0000 C   0  0  0  0  0  0  0  0  0  0  0  0
    5.6953    3.6601    0.0000 O   0  0  0  0  0  0  0  0  0  0  0  0
    5.0565    1.4847    0.0000 N   0  0  0  0  0  0  0  0  0  0  0  0
  1  2  1  0
  2  3  2  0
  3  4  1  0
  4  5  2  0
  5  6  1  0
  6  7  2  0
  7  8  1  0
  8  9  2  0
  9 10  1  0
 10 11  2  0
 11 12  1  0
 12 13  2  0
 13 14  1  0
 14 15  2  0
 15 16  1  0
 16 17  2  0
 17 18  1  0
 18 19  2  0
 19 20  1  0
 20 21  2  0
 21 22  1  0
 21 23  1  0
 23 24  2  0
 23 25  1  0
 25  2  1  0
M  END
>  <Title>  (1397) 
idACBSgen8

$$$$

     RDKit          2D

 41 47  0  0  0  0  0  0  0  0999 V2000
   10.9880   -3.7428    0.0000 C   0  0  0  0  0  0  0  0  0  0  0  0
   10.5244   -2.3162    0.0000 C   0  0  0  0  0  0  0  0  0  0  0  0
   11.5281   -1.2015    0.0000 C   0  0  0  0  0  0  0  0  0  0  0  0
   11.0646    0.2251    0.0000 C   0  0  0  0  0  0  0  0  0  0  0  0
    9.5974    0.5369    0.0000 C   0  0  0  0  0  0  0  0  0  0  0  0
    9.1339    1.9635    0.0000 C   0  0  0  0  0  0  0  0  0  0  0  0
   10.0155    3.1771    0.0000 N   0  0  0  0  0  0  0  0  0  0  0  0
    9.1339    4.3906    0.0000 N   0  0  0  0  0  0  0  0  0  0  0  0
    7.7073    3.9271    0.0000 N   0  0  0  0  0  0  0  0  0  0  0  0
    7.7073    2.4271    0.0000 N   0  0  0  0  0  0  0  0  0  0  0  0
    6.4937    1.5454    0.0000 C   0  0  0  0  0  0  0  0  0  0  0  0
    5.0672    2.0089    0.0000 C   0  0  0  0  0  0  0  0  0  0  0  0
    4.1855    0.7954    0.0000 C   0  0  0  0  0  0  0  0  0  0  0  0
    5.0672   -0.4182    0.0000 C   0  0  0  0  0  0  0  0  0  0  0  0
    4.6036   -1.8447    0.0000 C   0  0  0  0  0  0  0  0  0  0  0  0
    5.4853   -3.0583    0.0000 N   0  0  0  0  0  0  0  0  0  0  0  0
    4.6036   -4.2718    0.0000 N   0  0  0  0  0  0  0  0  0  0  0  0
    3.1771   -3.8083    0.0000 N   0  0  0  0  0  0  0  0  0  0  0  0
    3.1771   -2.3083    0.0000 N   0  0  0  0  0  0  0  0  0  0  0  0
    1.9635   -1.4266    0.0000 C   0  0  0  0  0  0  0  0  0  0  0  0
    2.4271    0.0000    0.0000 C   0  0  0  0  0  0  0  0  0  0  0  0
    1.9635    1.4266    0.0000 C   0  0  0  0  0  0  0  0  0  0  0  0
    0.7500    2.3083    0.0000 C   0  0  0  0  0  0  0  0  0  0  0  0
   -0.7500    2.3083    0.0000 C   0  0  0  0  0  0  0  0  0  0  0  0
   -1.9635    1.4266    0.0000 C   0  0  0  0  0  0  0  0  0  0  0  0
   -2.4271    0.0000    0.0000 C   0  0  0  0  0  0  0  0  0  0  0  0
   -1.9635   -1.4266    0.0000 C   0  0  0  0  0  0  0  0  0  0  0  0
   -0.7500   -2.3083    0.0000 C   0  0  0  0  0  0  0  0  0  0  0  0
    0.7500   -2.3083    0.0000 C   0  0  0  0  0  0  0  0  0  0  0  0
   -3.1771   -2.3083    0.0000 C   0  0  0  0  0  0  0  0  0  0  0  0
   -4.5508   -2.9344    0.0000 N   0  0  0  0  0  0  0  0  0  0  0  0
   -5.6655   -1.9307    0.0000 N   0  0  0  0  0  0  0  0  0  0  0  0
   -5.3536   -0.4635    0.0000 N   0  0  0  0  0  0  0  0  0  0  0  0
   -3.9271   -0.0000    0.0000 N   0  0  0  0  0  0  0  0  0  0  0  0
   -4.3906   -1.4266    0.0000 C   0  0  0  0  0  0  0  0  0  0  0  0
   -5.1858   -1.4821    0.0000 O   0  0  0  0  0  0  0  0  0  0  0  0
    6.4937    0.0454    0.0000 C   0  0  0  0  0  0  0  0  0  0  0  0
    7.7073   -0.8363    0.0000 O   0  0  0  0  0  0  0  0  0  0  0  0
    8.5937   -0.5778    0.0000 N   0  0  0  0  0  0  0  0  0  0  0  0
    9.0572   -2.0044    0.0000 C   0  0  0  0  0  0  0  0  0  0  0  0
    8.0535   -3.1191    0.0000 O   0  0  0  0  0  0  0  0  0  0  0  0
  1  2  1  0
  2  3  2  0
  3  4  1  0
  4  5  2  0
  5  6  1  0
  6  7  2  0
  7  8  1  0
  8  9  2  0
  9 10  1  0
 10 11  1  0
 11 12  2  0
 12 13  1  0
 13 14  2  0
 14 15  1  0
 15 16  2  0
 16 17  1  0
 17 18  2  0
 18 19  1  0
 19 20  1  0
 20 21  2  0
 21 22  1  0
 22 23  2  0
 23 24  1  0
 24 25  2  0
 25 26  1  0
 26 27  2  0
 27 28  1  0
 28 29  2  0
 27 30  1  0
 30 31  2  0
 31 32  1  0
 32 33  2  0
 33 34  1  0
 34 35  1  0
 35 36  2  0
 14 37  1  0
 37 38  2  0
  5 39  1  0
 39 40  1  0
 40 41  2  0
 40  2  1  0
 10  6  1  0
 37 11  1  0
 19 15  1  0
 29 20  1  0
 35 30  1  0
 34 26  1  0
M  END
>  <Title>  (1398) 
idACBTgen8

$$$$

     RDKit          2D

 38 43  0  0  0  0  0  0  0  0999 V2000
   -6.7772    3.6728    0.0000 C   0  0  0  0  0  0  0  0  0  0  0  0
   -5.4069    4.2829    0.0000 C   0  0  0  0  0  0  0  0  0  0  0  0
   -4.1079    3.5329    0.0000 C   0  0  0  0  0  0  0  0  0  0  0  0
   -2.9932    4.5366    0.0000 C   0  0  0  0  0  0  0  0  0  0  0  0
   -3.6033    5.9070    0.0000 C   0  0  0  0  0  0  0  0  0  0  0  0
   -2.8533    7.2060    0.0000 C   0  0  0  0  0  0  0  0  0  0  0  0
   -3.4634    8.5763    0.0000 N   0  0  0  0  0  0  0  0  0  0  0  0
   -2.3486    9.5800    0.0000 N   0  0  0  0  0  0  0  0  0  0  0  0
   -1.0496    8.8300    0.0000 N   0  0  0  0  0  0  0  0  0  0  0  0
   -1.3615    7.3628    0.0000 N   0  0  0  0  0  0  0  0  0  0  0  0
   -0.3578    6.2481    0.0000 C   0  0  0  0  0  0  0  0  0  0  0  0
    1.1340    6.4049    0.0000 C   0  0  0  0  0  0  0  0  0  0  0  0
    1.7441    5.0345    0.0000 C   0  0  0  0  0  0  0  0  0  0  0  0
    0.6294    4.0308    0.0000 C   0  0  0  0  0  0  0  0  0  0  0  0
    0.7862    2.5391    0.0000 C   0  0  0  0  0  0  0  0  0  0  0  0
   -0.4273    1.6574    0.0000 O   0  0  0  0  0  0  0  0  0  0  0  0
    2.1565    1.9290    0.0000 N   0  0  0  0  0  0  0  0  0  0  0  0
    2.3133    0.4372    0.0000 C   0  0  0  0  0  0  0  0  0  0  0  0
    1.0998   -0.4445    0.0000 O   0  0  0  0  0  0  0  0  0  0  0  0
    3.6836   -0.1729    0.0000 C   0  0  0  0  0  0  0  0  0  0  0  0
    4.9826    0.5771    0.0000 N   0  0  0  0  0  0  0  0  0  0  0  0
    6.0974   -0.4266    0.0000 N   0  0  0  0  0  0  0  0  0  0  0  0
    5.4873   -1.7969    0.0000 N   0  0  0  0  0  0  0  0  0  0  0  0
    3.9955   -1.6402    0.0000 N   0  0  0  0  0  0  0  0  0  0  0  0
    2.9918   -2.7549    0.0000 C   0  0  0  0  0  0  0  0  0  0  0  0
    1.5000   -2.5981    0.0000 N   0  0  0  0  0  0  0  0  0  0  0  0
    0.8899   -3.9684    0.0000 N   0  0  0  0  0  0  0  0  0  0  0  0
    2.0046   -4.9721    0.0000 N   0  0  0  0  0  0  0  0  0  0  0  0
    3.3037   -4.2221    0.0000 N   0  0  0  0  0  0  0  0  0  0  0  0
    4.6740   -4.8322    0.0000 C   0  0  0  0  0  0  0  0  0  0  0  0
    5.8875   -3.9505    0.0000 C   0  0  0  0  0  0  0  0  0  0  0  0
    7.2578   -4.5606    0.0000 C   0  0  0  0  0  0  0  0  0  0  0  0
    7.4146   -6.0524    0.0000 C   0  0  0  0  0  0  0  0  0  0  0  0
    6.2011   -6.9341    0.0000 C   0  0  0  0  0  0  0  0  0  0  0  0
    4.8308   -6.3240    0.0000 C   0  0  0  0  0  0  0  0  0  0  0  0
   -0.6696    4.7808    0.0000 C   0  0  0  0  0  0  0  0  0  0  0  0
   -2.0400    4.1707    0.0000 O   0  0  0  0  0  0  0  0  0  0  0  0
   -5.0950    5.7502    0.0000 N   0  0  0  0  0  0  0  0  0  0  0  0
  1  2  1  0
  2  3  2  0
  3  4  1  0
  4  5  2  0
  5  6  1  0
  6  7  2  0
  7  8  1  0
  8  9  2  0
  9 10  1  0
 10 11  1  0
 11 12  2  0
 12 13  1  0
 13 14  2  0
 14 15  1  0
 15 16  2  0
 15 17  1  0
 17 18  1  0
 18 19  2  0
 18 20  1  0
 20 21  2  0
 21 22  1  0
 22 23  2  0
 23 24  1  0
 24 25  1  0
 25 26  2  0
 26 27  1  0
 27 28  2  0
 28 29  1  0
 29 30  1  0
 30 31  2  0
 31 32  1  0
 32 33  2  0
 33 34  1  0
 34 35  2  0
 14 36  1  0
 36 37  2  0
  5 38  1  0
 38  2  1  0
 10  6  1  0
 36 11  1  0
 24 20  1  0
 29 25  1  0
 35 30  1  0
M  END
>  <Title>  (1399) 
idACBUgen8

$$$$

     RDKit          2D

 44 49  0  0  0  0  0  0  0  0999 V2000
    3.0000    0.0000    0.0000 C   0  0  0  0  0  0  0  0  0  0  0  0
    1.5000    0.0000    0.0000 C   0  0  0  0  0  0  0  0  0  0  0  0
    0.7500   -1.2990    0.0000 C   0  0  0  0  0  0  0  0  0  0  0  0
   -0.7500   -1.2990    0.0000 C   0  0  0  0  0  0  0  0  0  0  0  0
   -1.5000    0.0000    0.0000 C   0  0  0  0  0  0  0  0  0  0  0  0
   -3.0000    0.0000    0.0000 C   0  0  0  0  0  0  0  0  0  0  0  0
   -3.8817   -1.2135    0.0000 N   0  0  0  0  0  0  0  0  0  0  0  0
   -5.3083   -0.7500    0.0000 N   0  0  0  0  0  0  0  0  0  0  0  0
   -5.3083    0.7500    0.0000 N   0  0  0  0  0  0  0  0  0  0  0  0
   -3.8817    1.2135    0.0000 N   0  0  0  0  0  0  0  0  0  0  0  0
   -3.4182    2.6401    0.0000 C   0  0  0  0  0  0  0  0  0  0  0  0
   -1.9509    2.9520    0.0000 C   0  0  0  0  0  0  0  0  0  0  0  0
   -1.4874    4.3786    0.0000 C   0  0  0  0  0  0  0  0  0  0  0  0
   -2.4911    5.4933    0.0000 C   0  0  0  0  0  0  0  0  0  0  0  0
   -2.0276    6.9199    0.0000 C   0  0  0  0  0  0  0  0  0  0  0  0
   -3.0313    8.0346    0.0000 O   0  0  0  0  0  0  0  0  0  0  0  0
   -0.5604    7.2317    0.0000 N   0  0  0  0  0  0  0  0  0  0  0  0
   -0.0968    8.6583    0.0000 C   0  0  0  0  0  0  0  0  0  0  0  0
   -1.1005    9.7730    0.0000 O   0  0  0  0  0  0  0  0  0  0  0  0
    1.3704    8.9702    0.0000 C   0  0  0  0  0  0  0  0  0  0  0  0
    1.9805   10.3405    0.0000 N   0  0  0  0  0  0  0  0  0  0  0  0
    3.4723   10.1837    0.0000 N   0  0  0  0  0  0  0  0  0  0  0  0
    3.7841    8.7165    0.0000 N   0  0  0  0  0  0  0  0  0  0  0  0
    2.4851    7.9665    0.0000 N   0  0  0  0  0  0  0  0  0  0  0  0
    2.3283    6.4747    0.0000 C   0  0  0  0  0  0  0  0  0  0  0  0
    0.9580    5.8646    0.0000 C   0  0  0  0  0  0  0  0  0  0  0  0
    0.8012    4.3728    0.0000 C   0  0  0  0  0  0  0  0  0  0  0  0
    2.0147    3.4911    0.0000 C   0  0  0  0  0  0  0  0  0  0  0  0
    3.3850    4.1012    0.0000 C   0  0  0  0  0  0  0  0  0  0  0  0
    3.5418    5.5930    0.0000 C   0  0  0  0  0  0  0  0  0  0  0  0
   -3.9583    5.1814    0.0000 C   0  0  0  0  0  0  0  0  0  0  0  0
   -4.4218    3.7548    0.0000 C   0  0  0  0  0  0  0  0  0  0  0  0
   -5.8891    3.4430    0.0000 C   0  0  0  0  0  0  0  0  0  0  0  0
   -6.8928    4.5577    0.0000 C   0  0  0  0  0  0  0  0  0  0  0  0
   -8.3600    4.2458    0.0000 C   0  0  0  0  0  0  0  0  0  0  0  0
   -8.8235    2.8192    0.0000 C   0  0  0  0  0  0  0  0  0  0  0  0
  -10.2907    2.5074    0.0000 C   0  0  0  0  0  0  0  0  0  0  0  0
  -10.7543    1.0808    0.0000 O   0  0  0  0  0  0  0  0  0  0  0  0
  -11.2944    3.6221    0.0000 N   0  0  0  0  0  0  0  0  0  0  0  0
  -12.7617    3.3102    0.0000 O   0  0  0  0  0  0  0  0  0  0  0  0
   -7.8198    1.7045    0.0000 C   0  0  0  0  0  0  0  0  0  0  0  0
   -6.3526    2.0164    0.0000 C   0  0  0  0  0  0  0  0  0  0  0  0
   -0.7500    1.2990    0.0000 C   0  0  0  0  0  0  0  0  0  0  0  0
    0.7500    1.2990    0.0000 C   0  0  0  0  0  0  0  0  0  0  0  0
  1  2  1  0
  2  3  2  0
  3  4  1  0
  4  5  2  0
  5  6  1  0
  6  7  2  0
  7  8  1  0
  8  9  2  0
  9 10  1  0
 10 11  1  0
 11 12  2  0
 12 13  1  0
 13 14  2  0
 14 15  1  0
 15 16  2  0
 15 17  1  0
 17 18  1  0
 18 19  2  0
 18 20  1  0
 20 21  2  0
 21 22  1  0
 22 23  2  0
 23 24  1  0
 24 25  1  0
 25 26  2  0
 26 27  1  0
 27 28  2  0
 28 29  1  0
 29 30  2  0
 14 31  1  0
 31 32  2  0
 32 33  1  0
 33 34  2  0
 34 35  1  0
 35 36  2  0
 36 37  1  0
 37 38  2  0
 37 39  1  0
 39 40  1  0
 36 41  1  0
 41 42  1  0
  5 43  1  0
 43 44  2  0
 44  2  1  0
 10  6  1  0
 32 11  1  0
 42 33  1  0
 24 20  1  0
 30 25  1  0
M  END
>  <Title>  (1400) 
idACBVgen8

$$$$

     RDKit          2D

 44 44  0  0  0  0  0  0  0  0999 V2000
   12.2861   -1.2990    0.0000 C   0  0  0  0  0  0  0  0  0  0  0  0
   11.5361    0.0000    0.0000 O   0  0  0  0  0  0  0  0  0  0  0  0
   10.0361    0.0000    0.0000 C   0  0  0  0  0  0  0  0  0  0  0  0
    9.9240   -1.4958    0.0000 C   0  0  0  0  0  0  0  0  0  0  0  0
    9.5902   -2.9582    0.0000 C   0  0  0  0  0  0  0  0  0  0  0  0
    9.0422   -4.3545    0.0000 C   0  0  0  0  0  0  0  0  0  0  0  0
    8.2922   -5.6535    0.0000 C   0  0  0  0  0  0  0  0  0  0  0  0
    7.3570   -6.8263    0.0000 C   0  0  0  0  0  0  0  0  0  0  0  0
    6.2574   -7.8466    0.0000 C   0  0  0  0  0  0  0  0  0  0  0  0
    5.0181   -8.6915    0.0000 C   0  0  0  0  0  0  0  0  0  0  0  0
    3.6666   -9.3424    0.0000 C   0  0  0  0  0  0  0  0  0  0  0  0
    2.2332   -9.7845    0.0000 C   0  0  0  0  0  0  0  0  0  0  0  0
    0.7500  -10.0081    0.0000 C   0  0  0  0  0  0  0  0  0  0  0  0
   -0.7500  -10.0081    0.0000 C   0  0  0  0  0  0  0  0  0  0  0  0
   -2.2332   -9.7845    0.0000 C   0  0  0  0  0  0  0  0  0  0  0  0
   -3.6666   -9.3424    0.0000 C   0  0  0  0  0  0  0  0  0  0  0  0
   -5.0181   -8.6915    0.0000 C   0  0  0  0  0  0  0  0  0  0  0  0
   -6.2574   -7.8466    0.0000 C   0  0  0  0  0  0  0  0  0  0  0  0
   -7.3570   -6.8263    0.0000 C   0  0  0  0  0  0  0  0  0  0  0  0
   -8.2922   -5.6535    0.0000 C   0  0  0  0  0  0  0  0  0  0  0  0
   -9.0422   -4.3545    0.0000 C   0  0  0  0  0  0  0  0  0  0  0  0
   -9.5902   -2.9582    0.0000 C   0  0  0  0  0  0  0  0  0  0  0  0
   -9.9240   -1.4958    0.0000 C   0  0  0  0  0  0  0  0  0  0  0  0
  -10.0361    0.0000    0.0000 C   0  0  0  0  0  0  0  0  0  0  0  0
   -9.9240    1.4958    0.0000 C   0  0  0  0  0  0  0  0  0  0  0  0
   -9.5902    2.9582    0.0000 C   0  0  0  0  0  0  0  0  0  0  0  0
   -9.0422    4.3545    0.0000 C   0  0  0  0  0  0  0  0  0  0  0  0
   -8.2922    5.6535    0.0000 C   0  0  0  0  0  0  0  0  0  0  0  0
   -7.3570    6.8263    0.0000 C   0  0  0  0  0  0  0  0  0  0  0  0
   -6.2574    7.8466    0.0000 C   0  0  0  0  0  0  0  0  0  0  0  0
   -5.0181    8.6915    0.0000 C   0  0  0  0  0  0  0  0  0  0  0  0
   -3.6666    9.3424    0.0000 C   0  0  0  0  0  0  0  0  0  0  0  0
   -2.2332    9.7845    0.0000 C   0  0  0  0  0  0  0  0  0  0  0  0
   -0.7500   10.0081    0.0000 C   0  0  0  0  0  0  0  0  0  0  0  0
    0.7500   10.0081    0.0000 C   0  0  0  0  0  0  0  0  0  0  0  0
    2.2332    9.7845    0.0000 C   0  0  0  0  0  0  0  0  0  0  0  0
    3.6666    9.3424    0.0000 C   0  0  0  0  0  0  0  0  0  0  0  0
    5.0181    8.6915    0.0000 C   0  0  0  0  0  0  0  0  0  0  0  0
    6.2574    7.8466    0.0000 C   0  0  0  0  0  0  0  0  0  0  0  0
    7.3570    6.8263    0.0000 C   0  0  0  0  0  0  0  0  0  0  0  0
    8.2922    5.6535    0.0000 C   0  0  0  0  0  0  0  0  0  0  0  0
    9.0422    4.3545    0.0000 C   0  0  0  0  0  0  0  0  0  0  0  0
    9.5902    2.9582    0.0000 C   0  0  0  0  0  0  0  0  0  0  0  0
    9.9240    1.4958    0.0000 C   0  0  0  0  0  0  0  0  0  0  0  0
  1  2  1  0
  2  3  1  0
  3  4  2  0
  4  5  1  0
  5  6  2  0
  6  7  1  0
  7  8  2  0
  8  9  1  0
  9 10  2  0
 10 11  1  0
 11 12  2  0
 12 13  1  0
 13 14  2  0
 14 15  1  0
 15 16  2  0
 16 17  1  0
 17 18  2  0
 18 19  1  0
 19 20  2  0
 20 21  1  0
 21 22  2  0
 22 23  1  0
 23 24  2  0
 24 25  1  0
 25 26  2  0
 26 27  1  0
 27 28  2  0
 28 29  1  0
 29 30  2  0
 30 31  1  0
 31 32  2  0
 32 33  1  0
 33 34  2  0
 34 35  1  0
 35 36  2  0
 36 37  1  0
 37 38  2  0
 38 39  1  0
 39 40  2  0
 40 41  1  0
 41 42  2  0
 42 43  1  0
 43 44  2  0
 44  3  1  0
M  END
>  <Title>  (1401) 
idACBWgen8

$$$$

     RDKit          2D

 57 65  0  0  0  0  0  0  0  0999 V2000
   11.1448    2.5428    0.0000 C   0  0  0  0  0  0  0  0  0  0  0  0
    9.8204    1.8385    0.0000 C   0  0  0  0  0  0  0  0  0  0  0  0
    9.7680    0.3395    0.0000 C   0  0  0  0  0  0  0  0  0  0  0  0
    8.4436   -0.3647    0.0000 C   0  0  0  0  0  0  0  0  0  0  0  0
    7.1715    0.4301    0.0000 C   0  0  0  0  0  0  0  0  0  0  0  0
    5.8471   -0.2741    0.0000 C   0  0  0  0  0  0  0  0  0  0  0  0
    5.6383   -1.7595    0.0000 N   0  0  0  0  0  0  0  0  0  0  0  0
    4.1611   -2.0200    0.0000 N   0  0  0  0  0  0  0  0  0  0  0  0
    3.4569   -0.6955    0.0000 N   0  0  0  0  0  0  0  0  0  0  0  0
    4.4989    0.3835    0.0000 N   0  0  0  0  0  0  0  0  0  0  0  0
    4.2384    1.8607    0.0000 C   0  0  0  0  0  0  0  0  0  0  0  0
    5.3875    2.8249    0.0000 C   0  0  0  0  0  0  0  0  0  0  0  0
    5.1270    4.3021    0.0000 C   0  0  0  0  0  0  0  0  0  0  0  0
    3.7175    4.8151    0.0000 C   0  0  0  0  0  0  0  0  0  0  0  0
    3.4570    6.2923    0.0000 C   0  0  0  0  0  0  0  0  0  0  0  0
    2.1088    6.9499    0.0000 N   0  0  0  0  0  0  0  0  0  0  0  0
    2.3176    8.4353    0.0000 N   0  0  0  0  0  0  0  0  0  0  0  0
    3.7948    8.6958    0.0000 N   0  0  0  0  0  0  0  0  0  0  0  0
    4.4990    7.3713    0.0000 N   0  0  0  0  0  0  0  0  0  0  0  0
    5.9844    7.1626    0.0000 C   0  0  0  0  0  0  0  0  0  0  0  0
    6.6886    5.8382    0.0000 C   0  0  0  0  0  0  0  0  0  0  0  0
    8.1658    6.0986    0.0000 N   0  0  0  0  0  0  0  0  0  0  0  0
    8.3746    7.5840    0.0000 N   0  0  0  0  0  0  0  0  0  0  0  0
    7.0264    8.2416    0.0000 N   0  0  0  0  0  0  0  0  0  0  0  0
    6.7659    9.7188    0.0000 C   0  0  0  0  0  0  0  0  0  0  0  0
    5.3564   10.2318    0.0000 C   0  0  0  0  0  0  0  0  0  0  0  0
    5.0959   11.7090    0.0000 C   0  0  0  0  0  0  0  0  0  0  0  0
    6.2450   12.6732    0.0000 C   0  0  0  0  0  0  0  0  0  0  0  0
    7.6545   12.1602    0.0000 C   0  0  0  0  0  0  0  0  0  0  0  0
    7.9150   10.6830    0.0000 C   0  0  0  0  0  0  0  0  0  0  0  0
    9.3245   10.1699    0.0000 C   0  0  0  0  0  0  0  0  0  0  0  0
    9.5850    8.6927    0.0000 C   0  0  0  0  0  0  0  0  0  0  0  0
   10.9945    8.1797    0.0000 C   0  0  0  0  0  0  0  0  0  0  0  0
   12.1436    9.1439    0.0000 C   0  0  0  0  0  0  0  0  0  0  0  0
   11.8831   10.6211    0.0000 C   0  0  0  0  0  0  0  0  0  0  0  0
   10.4736   11.1341    0.0000 C   0  0  0  0  0  0  0  0  0  0  0  0
   10.2131   12.6113    0.0000 C   0  0  0  0  0  0  0  0  0  0  0  0
   11.3622   13.5755    0.0000 C   0  0  0  0  0  0  0  0  0  0  0  0
   11.1017   15.0527    0.0000 C   0  0  0  0  0  0  0  0  0  0  0  0
    9.6922   15.5658    0.0000 C   0  0  0  0  0  0  0  0  0  0  0  0
    8.5431   14.6016    0.0000 C   0  0  0  0  0  0  0  0  0  0  0  0
    8.8036   13.1244    0.0000 C   0  0  0  0  0  0  0  0  0  0  0  0
    2.5684    3.8509    0.0000 C   0  0  0  0  0  0  0  0  0  0  0  0
    2.8289    2.3737    0.0000 C   0  0  0  0  0  0  0  0  0  0  0  0
    1.6798    1.4095    0.0000 N   0  0  0  0  0  0  0  0  0  0  0  0
    2.1929    0.0000    0.0000 C   0  0  0  0  0  0  0  0  0  0  0  0
    1.6798   -1.4095    0.0000 C   0  0  0  0  0  0  0  0  0  0  0  0
    0.3808   -2.1595    0.0000 C   0  0  0  0  0  0  0  0  0  0  0  0
   -1.0964   -1.8991    0.0000 N   0  0  0  0  0  0  0  0  0  0  0  0
   -2.0606   -0.7500    0.0000 N   0  0  0  0  0  0  0  0  0  0  0  0
   -2.0606    0.7500    0.0000 C   0  0  0  0  0  0  0  0  0  0  0  0
   -3.4701    1.2630    0.0000 C   0  0  0  0  0  0  0  0  0  0  0  0
   -1.0964    1.8991    0.0000 C   0  0  0  0  0  0  0  0  0  0  0  0
   -1.8464    3.1981    0.0000 O   0  0  0  0  0  0  0  0  0  0  0  0
    0.3808    2.1595    0.0000 N   0  0  0  0  0  0  0  0  0  0  0  0
    7.2239    1.9292    0.0000 N   0  0  0  0  0  0  0  0  0  0  0  0
    8.5483    2.6334    0.0000 C   0  0  0  0  0  0  0  0  0  0  0  0
  1  2  1  0
  2  3  2  0
  3  4  1  0
  4  5  2  0
  5  6  1  0
  6  7  2  0
  7  8  1  0
  8  9  2  0
  9 10  1  0
 10 11  1  0
 11 12  2  0
 12 13  1  0
 13 14  2  0
 14 15  1  0
 15 16  2  0
 16 17  1  0
 17 18  2  0
 18 19  1  0
 19 20  1  0
 20 21  2  0
 21 22  1  0
 22 23  2  0
 23 24  1  0
 24 25  1  0
 25 26  2  0
 26 27  1  0
 27 28  2  0
 28 29  1  0
 29 30  2  0
 30 31  1  0
 31 32  2  0
 32 33  1  0
 33 34  2  0
 34 35  1  0
 35 36  2  0
 36 37  1  0
 37 38  2  0
 38 39  1  0
 39 40  2  0
 40 41  1  0
 41 42  2  0
 14 43  1  0
 43 44  2  0
 44 45  1  0
 45 46  1  0
 46 47  2  0
 47 48  1  0
 48 49  2  0
 49 50  1  0
 50 51  2  0
 51 52  1  0
 51 53  1  0
 53 54  2  0
 53 55  1  0
  5 56  1  0
 56 57  1  0
 57  2  1  0
 10  6  1  0
 44 11  1  0
 55 45  1  0
 19 15  1  0
 24 20  1  0
 30 25  1  0
 36 31  1  0
 42 37  1  0
M  END
>  <Title>  (1402) 
idACBXgen8

$$$$

     RDKit          2D

 14 14  0  0  0  0  0  0  0  0999 V2000
    5.1478   -1.2990    0.0000 C   0  0  0  0  0  0  0  0  0  0  0  0
    4.3978    0.0000    0.0000 O   0  0  0  0  0  0  0  0  0  0  0  0
    2.8978    0.0000    0.0000 C   0  0  0  0  0  0  0  0  0  0  0  0
    2.5095   -1.4489    0.0000 C   0  0  0  0  0  0  0  0  0  0  0  0
    1.4489   -2.5095    0.0000 C   0  0  0  0  0  0  0  0  0  0  0  0
   -0.0000   -2.8978    0.0000 C   0  0  0  0  0  0  0  0  0  0  0  0
   -1.4489   -2.5095    0.0000 C   0  0  0  0  0  0  0  0  0  0  0  0
   -2.5095   -1.4489    0.0000 C   0  0  0  0  0  0  0  0  0  0  0  0
   -2.8978    0.0000    0.0000 C   0  0  0  0  0  0  0  0  0  0  0  0
   -2.5095    1.4489    0.0000 C   0  0  0  0  0  0  0  0  0  0  0  0
   -1.4489    2.5095    0.0000 C   0  0  0  0  0  0  0  0  0  0  0  0
    0.0000    2.8978    0.0000 C   0  0  0  0  0  0  0  0  0  0  0  0
    1.4489    2.5095    0.0000 C   0  0  0  0  0  0  0  0  0  0  0  0
    2.5095    1.4489    0.0000 C   0  0  0  0  0  0  0  0  0  0  0  0
  1  2  1  0
  2  3  1  0
  3  4  2  0
  4  5  1  0
  5  6  2  0
  6  7  1  0
  7  8  2  0
  8  9  1  0
  9 10  2  0
 10 11  1  0
 11 12  2  0
 12 13  1  0
 13 14  1  0
 14  3  1  0
M  END
>  <Title>  (1403) 
idACBYgen8

$$$$

     RDKit          2D

 44 49  0  0  0  0  0  0  0  0999 V2000
    9.8247   12.8866    0.0000 C   0  0  0  0  0  0  0  0  0  0  0  0
    9.4800   11.4267    0.0000 C   0  0  0  0  0  0  0  0  0  0  0  0
    8.0152   11.1039    0.0000 C   0  0  0  0  0  0  0  0  0  0  0  0
    7.3542    9.7573    0.0000 C   0  0  0  0  0  0  0  0  0  0  0  0
    7.9949    8.4010    0.0000 C   0  0  0  0  0  0  0  0  0  0  0  0
    7.0510    7.2353    0.0000 C   0  0  0  0  0  0  0  0  0  0  0  0
    7.5885    5.8349    0.0000 O   0  0  0  0  0  0  0  0  0  0  0  0
    5.5694    7.4700    0.0000 N   0  0  0  0  0  0  0  0  0  0  0  0
    4.6255    6.3042    0.0000 C   0  0  0  0  0  0  0  0  0  0  0  0
    5.0137    4.8554    0.0000 N   0  0  0  0  0  0  0  0  0  0  0  0
    3.7557    4.0384    0.0000 N   0  0  0  0  0  0  0  0  0  0  0  0
    2.5900    4.9824    0.0000 N   0  0  0  0  0  0  0  0  0  0  0  0
    3.1275    6.3828    0.0000 N   0  0  0  0  0  0  0  0  0  0  0  0
    2.3105    7.6408    0.0000 C   0  0  0  0  0  0  0  0  0  0  0  0
    2.9915    8.9773    0.0000 C   0  0  0  0  0  0  0  0  0  0  0  0
    2.1746   10.2353    0.0000 C   0  0  0  0  0  0  0  0  0  0  0  0
    0.6766   10.1568    0.0000 C   0  0  0  0  0  0  0  0  0  0  0  0
   -0.0044    8.8203    0.0000 C   0  0  0  0  0  0  0  0  0  0  0  0
    0.8126    7.5623    0.0000 C   0  0  0  0  0  0  0  0  0  0  0  0
    0.1316    6.2257    0.0000 C   0  0  0  0  0  0  0  0  0  0  0  0
    1.2463    5.2220    0.0000 C   0  0  0  0  0  0  0  0  0  0  0  0
    1.7099    3.7955    0.0000 C   0  0  0  0  0  0  0  0  0  0  0  0
    1.3980    2.3282    0.0000 C   0  0  0  0  0  0  0  0  0  0  0  0
    0.3943    1.2135    0.0000 C   0  0  0  0  0  0  0  0  0  0  0  0
    1.2760    0.0000    0.0000 N   0  0  0  0  0  0  0  0  0  0  0  0
    0.3943   -1.2135    0.0000 N   0  0  0  0  0  0  0  0  0  0  0  0
   -1.0323   -0.7500    0.0000 N   0  0  0  0  0  0  0  0  0  0  0  0
   -1.0323    0.7500    0.0000 N   0  0  0  0  0  0  0  0  0  0  0  0
   -2.4995    1.0619    0.0000 C   0  0  0  0  0  0  0  0  0  0  0  0
   -1.1433    2.8684    0.0000 C   0  0  0  0  0  0  0  0  0  0  0  0
   -2.2580    3.8721    0.0000 O   0  0  0  0  0  0  0  0  0  0  0  0
    0.2833    3.3319    0.0000 N   0  0  0  0  0  0  0  0  0  0  0  0
    0.5951    4.7992    0.0000 C   0  0  0  0  0  0  0  0  0  0  0  0
   -3.6142    2.0656    0.0000 C   0  0  0  0  0  0  0  0  0  0  0  0
   -4.0778    3.4921    0.0000 C   0  0  0  0  0  0  0  0  0  0  0  0
   -3.7659    4.9594    0.0000 C   0  0  0  0  0  0  0  0  0  0  0  0
   -5.1024    5.6404    0.0000 C   0  0  0  0  0  0  0  0  0  0  0  0
   -2.7622    6.0741    0.0000 C   0  0  0  0  0  0  0  0  0  0  0  0
   -3.5791    7.3321    0.0000 O   0  0  0  0  0  0  0  0  0  0  0  0
   -1.3356    6.5376    0.0000 N   0  0  0  0  0  0  0  0  0  0  0  0
    9.4548    8.0563    0.0000 N   0  0  0  0  0  0  0  0  0  0  0  0
   10.6345    8.9828    0.0000 C   0  0  0  0  0  0  0  0  0  0  0  0
   11.9811    8.3218    0.0000 O   0  0  0  0  0  0  0  0  0  0  0  0
   10.6457   10.4827    0.0000 N   0  0  0  0  0  0  0  0  0  0  0  0
  1  2  1  0
  2  3  2  0
  3  4  1  0
  4  5  2  0
  5  6  1  0
  6  7  2  0
  6  8  1  0
  8  9  1  0
  9 10  2  0
 10 11  1  0
 11 12  2  0
 12 13  1  0
 13 14  1  0
 14 15  1  0
 15 16  1  0
 16 17  1  0
 17 18  1  0
 18 19  1  0
 19 20  1  0
 20 21  2  0
 21 22  1  0
 22 23  2  0
 23 24  1  0
 24 25  2  0
 25 26  1  0
 26 27  2  0
 27 28  1  0
 28 29  1  0
 29 30  1  0
 30 31  2  0
 30 32  1  0
 32 33  1  0
 29 34  2  0
 34 35  1  0
 35 36  2  0
 36 37  1  0
 36 38  1  0
 38 39  2  0
 38 40  1  0
  5 41  1  0
 41 42  1  0
 42 43  2  0
 42 44  1  0
 44  2  1  0
 13  9  1  0
 19 14  1  0
 40 20  1  0
 32 23  1  0
 28 24  1  0
M  END
>  <Title>  (1404) 
idACBZgen8

$$$$

     RDKit          2D

  9  9  0  0  0  0  0  0  0  0999 V2000
    3.7500   -1.2990    0.0000 C   0  0  0  0  0  0  0  0  0  0  0  0
    3.0000    0.0000    0.0000 O   0  0  0  0  0  0  0  0  0  0  0  0
    1.5000    0.0000    0.0000 C   0  0  0  0  0  0  0  0  0  0  0  0
    0.7500   -1.2990    0.0000 C   0  0  0  0  0  0  0  0  0  0  0  0
   -0.7500   -1.2990    0.0000 C   0  0  0  0  0  0  0  0  0  0  0  0
   -1.5000    0.0000    0.0000 C   0  0  0  0  0  0  0  0  0  0  0  0
   -0.7500    1.2990    0.0000 C   0  0  0  0  0  0  0  0  0  0  0  0
    0.7500    1.2990    0.0000 C   0  0  0  0  0  0  0  0  0  0  0  0
    1.5000    2.5981    0.0000 N   0  0  0  0  0  0  0  0  0  0  0  0
  1  2  1  0
  2  3  1  0
  3  4  2  0
  4  5  1  0
  5  6  2  0
  6  7  1  0
  7  8  2  0
  8  9  1  0
  8  3  1  0
M  END
>  <Title>  (1405) 
idACCAgen8

$$$$

     RDKit          2D

 35 40  0  0  0  0  0  0  0  0999 V2000
    3.0000    0.0000    0.0000 C   0  0  0  0  0  0  0  0  0  0  0  0
    1.5000    0.0000    0.0000 C   0  0  0  0  0  0  0  0  0  0  0  0
    0.7500   -1.2990    0.0000 C   0  0  0  0  0  0  0  0  0  0  0  0
   -0.7500   -1.2990    0.0000 C   0  0  0  0  0  0  0  0  0  0  0  0
   -1.5000    0.0000    0.0000 C   0  0  0  0  0  0  0  0  0  0  0  0
   -3.0000    0.0000    0.0000 C   0  0  0  0  0  0  0  0  0  0  0  0
   -3.8817   -1.2135    0.0000 N   0  0  0  0  0  0  0  0  0  0  0  0
   -5.3083   -0.7500    0.0000 N   0  0  0  0  0  0  0  0  0  0  0  0
   -5.3083    0.7500    0.0000 N   0  0  0  0  0  0  0  0  0  0  0  0
   -3.8817    1.2135    0.0000 N   0  0  0  0  0  0  0  0  0  0  0  0
   -3.4182    2.6401    0.0000 C   0  0  0  0  0  0  0  0  0  0  0  0
   -1.9509    2.9520    0.0000 C   0  0  0  0  0  0  0  0  0  0  0  0
   -1.4874    4.3786    0.0000 C   0  0  0  0  0  0  0  0  0  0  0  0
   -2.4911    5.4933    0.0000 C   0  0  0  0  0  0  0  0  0  0  0  0
   -3.9583    5.1814    0.0000 C   0  0  0  0  0  0  0  0  0  0  0  0
   -4.4218    3.7548    0.0000 C   0  0  0  0  0  0  0  0  0  0  0  0
   -5.8891    3.4430    0.0000 C   0  0  0  0  0  0  0  0  0  0  0  0
   -6.8928    4.5577    0.0000 C   0  0  0  0  0  0  0  0  0  0  0  0
   -8.3600    4.2458    0.0000 C   0  0  0  0  0  0  0  0  0  0  0  0
   -8.8235    2.8192    0.0000 C   0  0  0  0  0  0  0  0  0  0  0  0
  -10.2907    2.5074    0.0000 C   0  0  0  0  0  0  0  0  0  0  0  0
  -10.9008    1.1370    0.0000 N   0  0  0  0  0  0  0  0  0  0  0  0
  -12.3926    1.2938    0.0000 N   0  0  0  0  0  0  0  0  0  0  0  0
  -12.7045    2.7611    0.0000 N   0  0  0  0  0  0  0  0  0  0  0  0
  -11.4055    3.5111    0.0000 N   0  0  0  0  0  0  0  0  0  0  0  0
  -11.2487    5.0028    0.0000 C   0  0  0  0  0  0  0  0  0  0  0  0
   -9.8783    5.6129    0.0000 C   0  0  0  0  0  0  0  0  0  0  0  0
   -9.7215    7.1047    0.0000 C   0  0  0  0  0  0  0  0  0  0  0  0
  -10.9351    7.9864    0.0000 C   0  0  0  0  0  0  0  0  0  0  0  0
  -12.3054    7.3763    0.0000 N   0  0  0  0  0  0  0  0  0  0  0  0
  -12.4622    5.8845    0.0000 C   0  0  0  0  0  0  0  0  0  0  0  0
   -7.8198    1.7045    0.0000 C   0  0  0  0  0  0  0  0  0  0  0  0
   -6.3526    2.0164    0.0000 C   0  0  0  0  0  0  0  0  0  0  0  0
   -0.7500    1.2990    0.0000 C   0  0  0  0  0  0  0  0  0  0  0  0
    0.7500    1.2990    0.0000 C   0  0  0  0  0  0  0  0  0  0  0  0
  1  2  1  0
  2  3  2  0
  3  4  1  0
  4  5  2  0
  5  6  1  0
  6  7  2  0
  7  8  1  0
  8  9  2  0
  9 10  1  0
 10 11  1  0
 11 12  1  0
 12 13  1  0
 13 14  1  0
 14 15  1  0
 15 16  1  0
 16 17  1  0
 17 18  2  0
 18 19  1  0
 19 20  2  0
 20 21  1  0
 21 22  2  0
 22 23  1  0
 23 24  2  0
 24 25  1  0
 25 26  1  0
 26 27  2  0
 27 28  1  0
 28 29  2  0
 29 30  1  0
 30 31  2  0
 20 32  1  0
 32 33  2  0
  5 34  1  0
 34 35  2  0
 35  2  1  0
 10  6  1  0
 16 11  1  0
 33 17  1  0
 25 21  1  0
 31 26  1  0
M  END
>  <Title>  (1406) 
idACCBgen8

$$$$

     RDKit          2D

 22 22  0  0  0  0  0  0  0  0999 V2000
    6.5321    0.0000    0.0000 C   0  0  0  0  0  0  0  0  0  0  0  0
    5.0321    0.0000    0.0000 C   0  0  0  0  0  0  0  0  0  0  0  0
    4.8086    1.4832    0.0000 C   0  0  0  0  0  0  0  0  0  0  0  0
    4.1577    2.8347    0.0000 C   0  0  0  0  0  0  0  0  0  0  0  0
    3.1375    3.9343    0.0000 C   0  0  0  0  0  0  0  0  0  0  0  0
    1.8384    4.6843    0.0000 C   0  0  0  0  0  0  0  0  0  0  0  0
    0.3761    5.0181    0.0000 C   0  0  0  0  0  0  0  0  0  0  0  0
   -1.1198    4.9060    0.0000 C   0  0  0  0  0  0  0  0  0  0  0  0
   -2.5161    4.3580    0.0000 C   0  0  0  0  0  0  0  0  0  0  0  0
   -3.6888    3.4227    0.0000 C   0  0  0  0  0  0  0  0  0  0  0  0
   -4.5338    2.1834    0.0000 C   0  0  0  0  0  0  0  0  0  0  0  0
   -4.9759    0.7500    0.0000 C   0  0  0  0  0  0  0  0  0  0  0  0
   -4.9759   -0.7500    0.0000 C   0  0  0  0  0  0  0  0  0  0  0  0
   -4.5338   -2.1834    0.0000 C   0  0  0  0  0  0  0  0  0  0  0  0
   -3.6888   -3.4227    0.0000 C   0  0  0  0  0  0  0  0  0  0  0  0
   -2.5161   -4.3580    0.0000 C   0  0  0  0  0  0  0  0  0  0  0  0
   -1.1198   -4.9060    0.0000 C   0  0  0  0  0  0  0  0  0  0  0  0
    0.3761   -5.0181    0.0000 C   0  0  0  0  0  0  0  0  0  0  0  0
    1.8384   -4.6843    0.0000 C   0  0  0  0  0  0  0  0  0  0  0  0
    3.1375   -3.9343    0.0000 C   0  0  0  0  0  0  0  0  0  0  0  0
    4.1577   -2.8347    0.0000 C   0  0  0  0  0  0  0  0  0  0  0  0
    4.8086   -1.4832    0.0000 C   0  0  0  0  0  0  0  0  0  0  0  0
  1  2  1  0
  2  3  2  0
  3  4  1  0
  4  5  2  0
  5  6  2  0
  6  7  2  0
  7  8  2  0
  8  9  1  0
  9 10  2  0
 10 11  1  0
 11 12  2  0
 12 13  1  0
 13 14  2  0
 14 15  1  0
 15 16  2  0
 16 17  1  0
 17 18  2  0
 18 19  1  0
 19 20  2  0
 20 21  1  0
 21 22  2  0
 22  2  1  0
M  END
>  <Title>  (1407) 
idACCCgen8

$$$$

     RDKit          2D

 39 44  0  0  0  0  0  0  0  0999 V2000
    6.6520    3.1342    0.0000 C   0  0  0  0  0  0  0  0  0  0  0  0
    5.9710    1.7977    0.0000 C   0  0  0  0  0  0  0  0  0  0  0  0
    4.4730    1.7192    0.0000 C   0  0  0  0  0  0  0  0  0  0  0  0
    3.7920    0.3827    0.0000 C   0  0  0  0  0  0  0  0  0  0  0  0
    4.6090   -0.8753    0.0000 C   0  0  0  0  0  0  0  0  0  0  0  0
    3.9280   -2.2118    0.0000 C   0  0  0  0  0  0  0  0  0  0  0  0
    4.6090   -3.5483    0.0000 N   0  0  0  0  0  0  0  0  0  0  0  0
    3.5483   -4.6090    0.0000 N   0  0  0  0  0  0  0  0  0  0  0  0
    2.2118   -3.9280    0.0000 N   0  0  0  0  0  0  0  0  0  0  0  0
    2.4465   -2.4465    0.0000 N   0  0  0  0  0  0  0  0  0  0  0  0
    1.3858   -1.3858    0.0000 C   0  0  0  0  0  0  0  0  0  0  0  0
    1.9598    0.0000    0.0000 C   0  0  0  0  0  0  0  0  0  0  0  0
    1.3858    1.3858    0.0000 C   0  0  0  0  0  0  0  0  0  0  0  0
    0.0000    1.9598    0.0000 C   0  0  0  0  0  0  0  0  0  0  0  0
    0.0000    3.4598    0.0000 C   0  0  0  0  0  0  0  0  0  0  0  0
    1.2135    4.3415    0.0000 N   0  0  0  0  0  0  0  0  0  0  0  0
    0.7500    5.7681    0.0000 N   0  0  0  0  0  0  0  0  0  0  0  0
   -0.7500    5.7681    0.0000 N   0  0  0  0  0  0  0  0  0  0  0  0
   -1.2135    4.3415    0.0000 N   0  0  0  0  0  0  0  0  0  0  0  0
   -2.6401    3.8780    0.0000 C   0  0  0  0  0  0  0  0  0  0  0  0
   -2.9520    2.4108    0.0000 C   0  0  0  0  0  0  0  0  0  0  0  0
   -4.3786    1.9472    0.0000 C   0  0  0  0  0  0  0  0  0  0  0  0
   -5.4933    2.9509    0.0000 C   0  0  0  0  0  0  0  0  0  0  0  0
   -5.1814    4.4182    0.0000 C   0  0  0  0  0  0  0  0  0  0  0  0
   -3.7548    4.8817    0.0000 C   0  0  0  0  0  0  0  0  0  0  0  0
   -1.3858    1.3858    0.0000 N   0  0  0  0  0  0  0  0  0  0  0  0
   -1.9598    0.0000    0.0000 N   0  0  0  0  0  0  0  0  0  0  0  0
   -1.3858   -1.3858    0.0000 N   0  0  0  0  0  0  0  0  0  0  0  0
   -0.0000   -1.9598    0.0000 C   0  0  0  0  0  0  0  0  0  0  0  0
   -0.0000   -3.4598    0.0000 C   0  0  0  0  0  0  0  0  0  0  0  0
    1.2135   -4.3415    0.0000 C   0  0  0  0  0  0  0  0  0  0  0  0
    0.7500   -5.7681    0.0000 C   0  0  0  0  0  0  0  0  0  0  0  0
   -0.7500   -5.7681    0.0000 C   0  0  0  0  0  0  0  0  0  0  0  0
   -1.6317   -6.9816    0.0000 C   0  0  0  0  0  0  0  0  0  0  0  0
   -1.2135   -4.3415    0.0000 C   0  0  0  0  0  0  0  0  0  0  0  0
   -2.6401   -3.8780    0.0000 O   0  0  0  0  0  0  0  0  0  0  0  0
    6.1069   -0.7968    0.0000 N   0  0  0  0  0  0  0  0  0  0  0  0
    6.7879    0.5397    0.0000 C   0  0  0  0  0  0  0  0  0  0  0  0
    8.2859    0.6182    0.0000 O   0  0  0  0  0  0  0  0  0  0  0  0
  1  2  1  0
  2  3  2  0
  3  4  1  0
  4  5  2  0
  5  6  1  0
  6  7  2  0
  7  8  1  0
  8  9  2  0
  9 10  1  0
 10 11  1  0
 11 12  2  0
 12 13  1  0
 13 14  2  0
 14 15  1  0
 15 16  2  0
 16 17  1  0
 17 18  2  0
 18 19  1  0
 19 20  1  0
 20 21  2  0
 21 22  1  0
 22 23  2  0
 23 24  1  0
 24 25  2  0
 14 26  1  0
 26 27  2  0
 27 28  1  0
 28 29  2  0
 29 30  1  0
 30 31  2  0
 31 32  1  0
 32 33  2  0
 33 34  1  0
 33 35  1  0
 35 36  2  0
  5 37  1  0
 37 38  1  0
 38 39  2  0
 38  2  1  0
 10  6  1  0
 29 11  1  0
 35 30  1  0
 19 15  1  0
 25 20  1  0
M  END
>  <Title>  (1408) 
idACCDgen8

$$$$

     RDKit          2D

 70 76  0  0  0  0  0  0  0  0999 V2000
    7.1097    4.8347    0.0000 C   0  0  0  0  0  0  0  0  0  0  0  0
    5.9601    3.8712    0.0000 O   0  0  0  0  0  0  0  0  0  0  0  0
    4.5508    4.3851    0.0000 C   0  0  0  0  0  0  0  0  0  0  0  0
    4.8490    5.8552    0.0000 C   0  0  0  0  0  0  0  0  0  0  0  0
    4.7005    7.3478    0.0000 C   0  0  0  0  0  0  0  0  0  0  0  0
    4.1188    8.7304    0.0000 C   0  0  0  0  0  0  0  0  0  0  0  0
    3.1553    9.8801    0.0000 C   0  0  0  0  0  0  0  0  0  0  0  0
    1.8958   10.6947    0.0000 C   0  0  0  0  0  0  0  0  0  0  0  0
    0.4521   11.1018    0.0000 C   0  0  0  0  0  0  0  0  0  0  0  0
   -1.0475   11.0654    0.0000 C   0  0  0  0  0  0  0  0  0  0  0  0
   -2.4697   10.5885    0.0000 C   0  0  0  0  0  0  0  0  0  0  0  0
   -3.6881    9.7137    0.0000 C   0  0  0  0  0  0  0  0  0  0  0  0
   -4.5946    8.5186    0.0000 C   0  0  0  0  0  0  0  0  0  0  0  0
   -5.1085    7.1093    0.0000 C   0  0  0  0  0  0  0  0  0  0  0  0
   -5.1842    5.6112    0.0000 C   0  0  0  0  0  0  0  0  0  0  0  0
   -3.9535    6.5144    0.0000 C   0  0  0  0  0  0  0  0  0  0  0  0
   -3.0206    7.3112    0.0000 C   0  0  0  0  0  0  0  0  0  0  0  0
   -1.8537    7.6903    0.0000 C   0  0  0  0  0  0  0  0  0  0  0  0
   -0.6306    7.5940    0.0000 C   0  0  0  0  0  0  0  0  0  0  0  0
    0.4625    7.0371    0.0000 C   0  0  0  0  0  0  0  0  0  0  0  0
    1.2593    6.1041    0.0000 C   0  0  0  0  0  0  0  0  0  0  0  0
    1.6384    4.9373    0.0000 C   0  0  0  0  0  0  0  0  0  0  0  0
    2.2159    3.5242    0.0000 C   0  0  0  0  0  0  0  0  0  0  0  0
    1.5349    2.1877    0.0000 C   0  0  0  0  0  0  0  0  0  0  0  0
    2.7129    1.2591    0.0000 C   0  0  0  0  0  0  0  0  0  0  0  0
    2.4976   -0.2254    0.0000 C   0  0  0  0  0  0  0  0  0  0  0  0
    3.6756   -1.1541    0.0000 C   0  0  0  0  0  0  0  0  0  0  0  0
    5.0688   -0.5982    0.0000 C   0  0  0  0  0  0  0  0  0  0  0  0
    6.2468   -1.5269    0.0000 C   0  0  0  0  0  0  0  0  0  0  0  0
    7.6400   -0.9710    0.0000 O   0  0  0  0  0  0  0  0  0  0  0  0
    6.0316   -3.0113    0.0000 N   0  0  0  0  0  0  0  0  0  0  0  0
    7.2095   -3.9400    0.0000 C   0  0  0  0  0  0  0  0  0  0  0  0
    8.6532   -3.5328    0.0000 N   0  0  0  0  0  0  0  0  0  0  0  0
    9.4866   -4.7800    0.0000 N   0  0  0  0  0  0  0  0  0  0  0  0
    8.5579   -5.9580    0.0000 N   0  0  0  0  0  0  0  0  0  0  0  0
    7.1507   -5.4388    0.0000 N   0  0  0  0  0  0  0  0  0  0  0  0
    5.9035   -6.2722    0.0000 C   0  0  0  0  0  0  0  0  0  0  0  0
    4.5581   -5.6088    0.0000 C   0  0  0  0  0  0  0  0  0  0  0  0
    3.3109   -6.4421    0.0000 C   0  0  0  0  0  0  0  0  0  0  0  0
    3.4090   -7.9389    0.0000 C   0  0  0  0  0  0  0  0  0  0  0  0
    2.1618   -8.7722    0.0000 C   0  0  0  0  0  0  0  0  0  0  0  0
    2.2599  -10.2690    0.0000 O   0  0  0  0  0  0  0  0  0  0  0  0
    0.8165   -8.1088    0.0000 N   0  0  0  0  0  0  0  0  0  0  0  0
   -0.4307   -8.9422    0.0000 O   0  0  0  0  0  0  0  0  0  0  0  0
    4.7544   -8.6023    0.0000 N   0  0  0  0  0  0  0  0  0  0  0  0
    6.0016   -7.7690    0.0000 C   0  0  0  0  0  0  0  0  0  0  0  0
    7.3469   -8.4324    0.0000 O   0  0  0  0  0  0  0  0  0  0  0  0
    5.2841    0.8863    0.0000 C   0  0  0  0  0  0  0  0  0  0  0  0
    4.1061    1.8149    0.0000 C   0  0  0  0  0  0  0  0  0  0  0  0
    0.3943    1.2135    0.0000 C   0  0  0  0  0  0  0  0  0  0  0  0
    1.2760    0.0000    0.0000 N   0  0  0  0  0  0  0  0  0  0  0  0
    0.3943   -1.2135    0.0000 C   0  0  0  0  0  0  0  0  0  0  0  0
   -1.0323   -0.7500    0.0000 N   0  0  0  0  0  0  0  0  0  0  0  0
   -1.0323    0.7500    0.0000 N   0  0  0  0  0  0  0  0  0  0  0  0
   -2.5277    0.8677    0.0000 N   0  0  0  0  0  0  0  0  0  0  0  0
   -3.8642    1.5487    0.0000 N   0  0  0  0  0  0  0  0  0  0  0  0
   -4.8383    2.6893    0.0000 N   0  0  0  0  0  0  0  0  0  0  0  0
   -5.3019    4.1159    0.0000 N   0  0  0  0  0  0  0  0  0  0  0  0
   -6.7915    3.9396    0.0000 C   0  0  0  0  0  0  0  0  0  0  0  0
   -7.2789    2.5210    0.0000 C   0  0  0  0  0  0  0  0  0  0  0  0
   -8.6920    2.0176    0.0000 C   0  0  0  0  0  0  0  0  0  0  0  0
   -9.9665    2.8085    0.0000 C   0  0  0  0  0  0  0  0  0  0  0  0
  -11.2321    2.0034    0.0000 C   0  0  0  0  0  0  0  0  0  0  0  0
  -11.1676    0.5048    0.0000 O   0  0  0  0  0  0  0  0  0  0  0  0
  -12.5622    2.6968    0.0000 N   0  0  0  0  0  0  0  0  0  0  0  0
  -13.8278    1.8917    0.0000 O   0  0  0  0  0  0  0  0  0  0  0  0
  -10.1428    4.2981    0.0000 C   0  0  0  0  0  0  0  0  0  0  0  0
  -11.5614    4.7856    0.0000 C   0  0  0  0  0  0  0  0  0  0  0  0
   -9.0881    5.3647    0.0000 C   0  0  0  0  0  0  0  0  0  0  0  0
   -7.5966    5.2052    0.0000 C   0  0  0  0  0  0  0  0  0  0  0  0
  1  2  1  0
  2  3  1  0
  3  4  1  0
  4  5  1  0
  5  6  1  0
  6  7  1  0
  7  8  1  0
  8  9  2  0
  9 10  1  0
 10 11  2  0
 11 12  1  0
 12 13  2  0
 13 14  1  0
 14 15  2  0
 15 16  1  0
 16 17  2  0
 17 18  1  0
 18 19  2  0
 19 20  1  0
 20 21  2  0
 21 22  1  0
 22 23  2  0
 23 24  1  0
 24 25  1  0
 25 26  2  0
 26 27  1  0
 27 28  2  0
 28 29  1  0
 29 30  2  0
 29 31  1  0
 31 32  1  0
 32 33  2  0
 33 34  1  0
 34 35  2  0
 35 36  1  0
 36 37  1  0
 37 38  2  0
 38 39  1  0
 39 40  2  0
 40 41  1  0
 41 42  2  0
 41 43  1  0
 43 44  1  0
 40 45  1  0
 45 46  1  0
 46 47  2  0
 28 48  1  0
 48 49  2  0
 24 50  1  0
 50 51  1  0
 51 52  1  0
 52 53  1  0
 53 54  1  0
 54 55  1  0
 55 56  1  0
 56 57  2  0
 57 58  1  0
 58 59  1  0
 59 60  2  0
 60 61  1  0
 61 62  2  0
 62 63  1  0
 63 64  2  0
 63 65  1  0
 65 66  1  0
 62 67  1  0
 67 68  1  0
 67 69  1  0
 69 70  1  0
 23  3  1  0
 49 25  1  0
 54 50  1  0
 70 59  1  0
 58 15  1  0
 36 32  1  0
 46 37  1  0
M  END
>  <Title>  (1409) 
idACCEgen8

$$$$

     RDKit          2D

 47 53  0  0  0  0  0  0  0  0999 V2000
    3.2286   -0.0000    0.0000 C   0  0  0  0  0  0  0  0  0  0  0  0
    1.7286    0.0000    0.0000 C   0  0  0  0  0  0  0  0  0  0  0  0
    1.0777    1.3515    0.0000 C   0  0  0  0  0  0  0  0  0  0  0  0
   -0.3846    1.6852    0.0000 C   0  0  0  0  0  0  0  0  0  0  0  0
   -1.5574    0.7500    0.0000 C   0  0  0  0  0  0  0  0  0  0  0  0
   -2.9088    1.4008    0.0000 C   0  0  0  0  0  0  0  0  0  0  0  0
   -4.2297    0.6900    0.0000 N   0  0  0  0  0  0  0  0  0  0  0  0
   -5.3139    1.7266    0.0000 N   0  0  0  0  0  0  0  0  0  0  0  0
   -4.6631    3.0781    0.0000 N   0  0  0  0  0  0  0  0  0  0  0  0
   -3.1767    2.8767    0.0000 N   0  0  0  0  0  0  0  0  0  0  0  0
   -2.1401    3.9609    0.0000 C   0  0  0  0  0  0  0  0  0  0  0  0
   -2.4079    5.4368    0.0000 C   0  0  0  0  0  0  0  0  0  0  0  0
   -1.0870    6.1476    0.0000 C   0  0  0  0  0  0  0  0  0  0  0  0
   -0.0028    5.1110    0.0000 C   0  0  0  0  0  0  0  0  0  0  0  0
    1.4731    5.3789    0.0000 C   0  0  0  0  0  0  0  0  0  0  0  0
    2.4430    4.2346    0.0000 C   0  0  0  0  0  0  0  0  0  0  0  0
    1.9370    2.8225    0.0000 O   0  0  0  0  0  0  0  0  0  0  0  0
    3.9189    4.5024    0.0000 N   0  0  0  0  0  0  0  0  0  0  0  0
    4.8888    3.3582    0.0000 C   0  0  0  0  0  0  0  0  0  0  0  0
    4.5331    1.9010    0.0000 N   0  0  0  0  0  0  0  0  0  0  0  0
    5.8092    1.1124    0.0000 N   0  0  0  0  0  0  0  0  0  0  0  0
    6.9534    2.0823    0.0000 N   0  0  0  0  0  0  0  0  0  0  0  0
    6.3846    3.4703    0.0000 N   0  0  0  0  0  0  0  0  0  0  0  0
    7.1731    4.7463    0.0000 C   0  0  0  0  0  0  0  0  0  0  0  0
    6.4623    6.0672    0.0000 C   0  0  0  0  0  0  0  0  0  0  0  0
    7.2508    7.3432    0.0000 C   0  0  0  0  0  0  0  0  0  0  0  0
    8.7501    7.2984    0.0000 C   0  0  0  0  0  0  0  0  0  0  0  0
    9.5387    8.5744    0.0000 C   0  0  0  0  0  0  0  0  0  0  0  0
    8.8279    9.8953    0.0000 C   0  0  0  0  0  0  0  0  0  0  0  0
    9.6164   11.1713    0.0000 C   0  0  0  0  0  0  0  0  0  0  0  0
   11.1157   11.1264    0.0000 C   0  0  0  0  0  0  0  0  0  0  0  0
   11.8265    9.8055    0.0000 C   0  0  0  0  0  0  0  0  0  0  0  0
   11.0380    8.5295    0.0000 C   0  0  0  0  0  0  0  0  0  0  0  0
    9.4609    5.9775    0.0000 C   0  0  0  0  0  0  0  0  0  0  0  0
    8.6724    4.7014    0.0000 C   0  0  0  0  0  0  0  0  0  0  0  0
    9.3832    3.3805    0.0000 C   0  0  0  0  0  0  0  0  0  0  0  0
   10.8825    3.3357    0.0000 C   0  0  0  0  0  0  0  0  0  0  0  0
   11.5933    2.0148    0.0000 C   0  0  0  0  0  0  0  0  0  0  0  0
   10.8048    0.7388    0.0000 C   0  0  0  0  0  0  0  0  0  0  0  0
    9.3055    0.7836    0.0000 C   0  0  0  0  0  0  0  0  0  0  0  0
    8.5947    2.1045    0.0000 C   0  0  0  0  0  0  0  0  0  0  0  0
   -0.6537    3.7596    0.0000 C   0  0  0  0  0  0  0  0  0  0  0  0
    0.0571    2.4387    0.0000 O   0  0  0  0  0  0  0  0  0  0  0  0
   -1.5574   -0.7500    0.0000 N   0  0  0  0  0  0  0  0  0  0  0  0
   -0.3846   -1.6852    0.0000 C   0  0  0  0  0  0  0  0  0  0  0  0
   -0.7184   -3.1476    0.0000 O   0  0  0  0  0  0  0  0  0  0  0  0
    1.0777   -1.3515    0.0000 N   0  0  0  0  0  0  0  0  0  0  0  0
  1  2  1  0
  2  3  2  0
  3  4  1  0
  4  5  2  0
  5  6  1  0
  6  7  2  0
  7  8  1  0
  8  9  2  0
  9 10  1  0
 10 11  1  0
 11 12  2  0
 12 13  1  0
 13 14  2  0
 14 15  1  0
 15 16  1  0
 16 17  2  0
 16 18  1  0
 18 19  1  0
 19 20  2  0
 20 21  1  0
 21 22  2  0
 22 23  1  0
 23 24  1  0
 24 25  2  0
 25 26  1  0
 26 27  2  0
 27 28  1  0
 28 29  2  0
 29 30  1  0
 30 31  2  0
 31 32  1  0
 32 33  2  0
 27 34  1  0
 34 35  2  0
 35 36  1  0
 36 37  2  0
 37 38  1  0
 38 39  2  0
 39 40  1  0
 40 41  2  0
 14 42  1  0
 42 43  2  0
  5 44  1  0
 44 45  1  0
 45 46  2  0
 45 47  1  0
 47  2  1  0
 10  6  1  0
 42 11  1  0
 23 19  1  0
 35 24  1  0
 41 36  1  0
 33 28  1  0
M  END
>  <Title>  (1410) 
idACCFgen8

$$$$

     RDKit          2D

 24 26  0  0  0  0  0  0  0  0999 V2000
    3.0000    0.0000    0.0000 C   0  0  0  0  0  0  0  0  0  0  0  0
    1.5000    0.0000    0.0000 C   0  0  0  0  0  0  0  0  0  0  0  0
    0.7500   -1.2990    0.0000 C   0  0  0  0  0  0  0  0  0  0  0  0
   -0.7500   -1.2990    0.0000 C   0  0  0  0  0  0  0  0  0  0  0  0
   -1.5000    0.0000    0.0000 C   0  0  0  0  0  0  0  0  0  0  0  0
   -3.0000    0.0000    0.0000 N   0  0  0  0  0  0  0  0  0  0  0  0
   -3.8817   -1.2135    0.0000 N   0  0  0  0  0  0  0  0  0  0  0  0
   -5.3083   -0.7500    0.0000 N   0  0  0  0  0  0  0  0  0  0  0  0
   -5.3083    0.7500    0.0000 N   0  0  0  0  0  0  0  0  0  0  0  0
   -3.8817    1.2135    0.0000 C   0  0  0  0  0  0  0  0  0  0  0  0
   -3.4182    2.6401    0.0000 N   0  0  0  0  0  0  0  0  0  0  0  0
   -4.4218    3.7548    0.0000 C   0  0  0  0  0  0  0  0  0  0  0  0
   -5.8891    3.4430    0.0000 O   0  0  0  0  0  0  0  0  0  0  0  0
   -3.9583    5.1814    0.0000 C   0  0  0  0  0  0  0  0  0  0  0  0
   -2.4911    5.4933    0.0000 C   0  0  0  0  0  0  0  0  0  0  0  0
   -2.0276    6.9199    0.0000 C   0  0  0  0  0  0  0  0  0  0  0  0
   -3.0313    8.0346    0.0000 C   0  0  0  0  0  0  0  0  0  0  0  0
   -2.5677    9.4612    0.0000 C   0  0  0  0  0  0  0  0  0  0  0  0
   -4.4985    7.7227    0.0000 N   0  0  0  0  0  0  0  0  0  0  0  0
   -4.9620    6.2961    0.0000 C   0  0  0  0  0  0  0  0  0  0  0  0
   -6.4292    5.9843    0.0000 O   0  0  0  0  0  0  0  0  0  0  0  0
   -0.7500    1.2990    0.0000 C   0  0  0  0  0  0  0  0  0  0  0  0
   -1.5000    2.5981    0.0000 O   0  0  0  0  0  0  0  0  0  0  0  0
    0.7500    1.2990    0.0000 C   0  0  0  0  0  0  0  0  0  0  0  0
  1  2  1  0
  2  3  2  0
  3  4  1  0
  4  5  2  0
  5  6  1  0
  6  7  1  0
  7  8  2  0
  8  9  1  0
  9 10  2  0
 10 11  1  0
 11 12  1  0
 12 13  2  0
 12 14  1  0
 14 15  2  0
 15 16  1  0
 16 17  2  0
 17 18  1  0
 17 19  1  0
 19 20  1  0
 20 21  2  0
  5 22  1  0
 22 23  2  0
 22 24  1  0
 24  2  1  0
 10  6  1  0
 20 14  1  0
M  END
>  <Title>  (1411) 
idACCGgen8

$$$$

     RDKit          2D

 16 17  0  0  0  0  0  0  0  0999 V2000
    2.7760    0.0000    0.0000 C   0  0  0  0  0  0  0  0  0  0  0  0
    1.2760    0.0000    0.0000 C   0  0  0  0  0  0  0  0  0  0  0  0
    0.3943    1.2135    0.0000 C   0  0  0  0  0  0  0  0  0  0  0  0
   -1.0323    0.7500    0.0000 C   0  0  0  0  0  0  0  0  0  0  0  0
   -1.9140    1.9635    0.0000 C   0  0  0  0  0  0  0  0  0  0  0  0
   -3.3405    2.4271    0.0000 C   0  0  0  0  0  0  0  0  0  0  0  0
   -4.7671    1.9635    0.0000 C   0  0  0  0  0  0  0  0  0  0  0  0
   -5.6488    0.7500    0.0000 C   0  0  0  0  0  0  0  0  0  0  0  0
   -7.0754    1.2135    0.0000 C   0  0  0  0  0  0  0  0  0  0  0  0
   -5.6488   -0.7500    0.0000 C   0  0  0  0  0  0  0  0  0  0  0  0
   -7.0754   -1.2135    0.0000 C   0  0  0  0  0  0  0  0  0  0  0  0
   -4.7671   -1.9635    0.0000 N   0  0  0  0  0  0  0  0  0  0  0  0
   -3.3405   -2.4271    0.0000 N   0  0  0  0  0  0  0  0  0  0  0  0
   -1.9140   -1.9635    0.0000 N   0  0  0  0  0  0  0  0  0  0  0  0
   -1.0323   -0.7500    0.0000 C   0  0  0  0  0  0  0  0  0  0  0  0
    0.3943   -1.2135    0.0000 C   0  0  0  0  0  0  0  0  0  0  0  0
  1  2  1  0
  2  3  2  0
  3  4  1  0
  4  5  2  0
  5  6  2  0
  6  7  1  0
  7  8  2  0
  8  9  1  0
  8 10  1  0
 10 11  1  0
 10 12  2  0
 12 13  1  0
 13 14  2  0
 14 15  1  0
 15 16  2  0
 16  2  1  0
 15  4  1  0
M  END
>  <Title>  (1412) 
idACCHgen8

$$$$

     RDKit          2D

 17 18  0  0  0  0  0  0  0  0999 V2000
   -0.7500   -3.8971    0.0000 O   0  0  0  0  0  0  0  0  0  0  0  0
    0.7500   -3.8971    0.0000 C   0  0  0  0  0  0  0  0  0  0  0  0
    1.5000   -2.5981    0.0000 N   0  0  0  0  0  0  0  0  0  0  0  0
    0.7500   -1.2990    0.0000 C   0  0  0  0  0  0  0  0  0  0  0  0
    1.5000    0.0000    0.0000 C   0  0  0  0  0  0  0  0  0  0  0  0
    0.7500    1.2990    0.0000 C   0  0  0  0  0  0  0  0  0  0  0  0
   -0.7500    1.2990    0.0000 C   0  0  0  0  0  0  0  0  0  0  0  0
   -1.5000    2.5981    0.0000 F   0  0  0  0  0  0  0  0  0  0  0  0
   -1.5000    0.0000    0.0000 C   0  0  0  0  0  0  0  0  0  0  0  0
   -0.7500   -1.2990    0.0000 C   0  0  0  0  0  0  0  0  0  0  0  0
    1.5000   -5.1962    0.0000 C   0  0  0  0  0  0  0  0  0  0  0  0
    0.7500   -6.4952    0.0000 C   0  0  0  0  0  0  0  0  0  0  0  0
    1.5000   -7.7942    0.0000 C   0  0  0  0  0  0  0  0  0  0  0  0
    3.0000   -7.7942    0.0000 C   0  0  0  0  0  0  0  0  0  0  0  0
    3.7500   -6.4952    0.0000 C   0  0  0  0  0  0  0  0  0  0  0  0
    3.0000   -5.1962    0.0000 C   0  0  0  0  0  0  0  0  0  0  0  0
    3.7500   -3.8971    0.0000 O   0  0  0  0  0  0  0  0  0  0  0  0
  1  2  2  0
  2  3  1  0
  3  4  1  0
  4  5  2  0
  5  6  1  0
  6  7  2  0
  7  8  1  0
  7  9  1  0
  9 10  2  0
  2 11  1  0
 11 12  2  0
 12 13  1  0
 13 14  2  0
 14 15  1  0
 15 16  2  0
 16 17  1  0
 10  4  1  0
 16 11  1  0
M  END
>  <Title>  (1413) 
idACCIgen8

$$$$

     RDKit          2D

 28 31  0  0  0  0  0  0  0  0999 V2000
  -10.1624    4.2767    0.0000 C   0  0  0  0  0  0  0  0  0  0  0  0
   -8.9488    3.3950    0.0000 C   0  0  0  0  0  0  0  0  0  0  0  0
   -7.5785    4.0051    0.0000 C   0  0  0  0  0  0  0  0  0  0  0  0
   -6.3650    3.1235    0.0000 C   0  0  0  0  0  0  0  0  0  0  0  0
   -6.5218    1.6317    0.0000 C   0  0  0  0  0  0  0  0  0  0  0  0
   -5.3083    0.7500    0.0000 C   0  0  0  0  0  0  0  0  0  0  0  0
   -5.3083   -0.7500    0.0000 N   0  0  0  0  0  0  0  0  0  0  0  0
   -3.8817   -1.2135    0.0000 N   0  0  0  0  0  0  0  0  0  0  0  0
   -3.0000    0.0000    0.0000 N   0  0  0  0  0  0  0  0  0  0  0  0
   -3.8817    1.2135    0.0000 N   0  0  0  0  0  0  0  0  0  0  0  0
   -3.4182    2.6401    0.0000 C   0  0  0  0  0  0  0  0  0  0  0  0
   -4.2998    3.8536    0.0000 C   0  0  0  0  0  0  0  0  0  0  0  0
   -3.4182    5.0672    0.0000 C   0  0  0  0  0  0  0  0  0  0  0  0
   -1.9916    4.6036    0.0000 N   0  0  0  0  0  0  0  0  0  0  0  0
   -1.9916    3.1036    0.0000 C   0  0  0  0  0  0  0  0  0  0  0  0
   -0.7780    2.2220    0.0000 C   0  0  0  0  0  0  0  0  0  0  0  0
   -0.9348    0.7302    0.0000 C   0  0  0  0  0  0  0  0  0  0  0  0
    0.2787   -0.1515    0.0000 C   0  0  0  0  0  0  0  0  0  0  0  0
    1.6490    0.4586    0.0000 C   0  0  0  0  0  0  0  0  0  0  0  0
    2.8625   -0.4231    0.0000 C   0  0  0  0  0  0  0  0  0  0  0  0
    2.7057   -1.9149    0.0000 O   0  0  0  0  0  0  0  0  0  0  0  0
    4.2329    0.1870    0.0000 N   0  0  0  0  0  0  0  0  0  0  0  0
    5.4464   -0.6946    0.0000 O   0  0  0  0  0  0  0  0  0  0  0  0
    1.8058    1.9504    0.0000 C   0  0  0  0  0  0  0  0  0  0  0  0
    0.5923    2.8321    0.0000 C   0  0  0  0  0  0  0  0  0  0  0  0
   -7.8921    1.0216    0.0000 C   0  0  0  0  0  0  0  0  0  0  0  0
   -8.0489   -0.4702    0.0000 O   0  0  0  0  0  0  0  0  0  0  0  0
   -9.1056    1.9033    0.0000 N   0  0  0  0  0  0  0  0  0  0  0  0
  1  2  1  0
  2  3  2  0
  3  4  1  0
  4  5  2  0
  5  6  1  0
  6  7  2  0
  7  8  1  0
  8  9  2  0
  9 10  1  0
 10 11  1  0
 11 12  1  0
 12 13  1  0
 13 14  1  0
 14 15  1  0
 15 16  1  0
 16 17  2  0
 17 18  1  0
 18 19  2  0
 19 20  1  0
 20 21  2  0
 20 22  1  0
 22 23  1  0
 19 24  1  0
 24 25  1  0
  5 26  1  0
 26 27  2  0
 26 28  1  0
 28  2  1  0
 10  6  1  0
 15 11  1  0
 25 16  1  0
M  END
>  <Title>  (1414) 
idACCJgen8

$$$$

     RDKit          2D

 36 40  0  0  0  0  0  0  0  0999 V2000
    3.7500   -1.2990    0.0000 C   0  0  0  0  0  0  0  0  0  0  0  0
    3.0000    0.0000    0.0000 O   0  0  0  0  0  0  0  0  0  0  0  0
    1.5000    0.0000    0.0000 C   0  0  0  0  0  0  0  0  0  0  0  0
    0.7500   -1.2990    0.0000 C   0  0  0  0  0  0  0  0  0  0  0  0
   -0.7500   -1.2990    0.0000 C   0  0  0  0  0  0  0  0  0  0  0  0
   -1.5000    0.0000    0.0000 C   0  0  0  0  0  0  0  0  0  0  0  0
   -3.0000    0.0000    0.0000 C   0  0  0  0  0  0  0  0  0  0  0  0
   -3.7500   -1.2990    0.0000 O   0  0  0  0  0  0  0  0  0  0  0  0
   -3.7500    1.2990    0.0000 N   0  0  0  0  0  0  0  0  0  0  0  0
   -5.2500    1.2990    0.0000 C   0  0  0  0  0  0  0  0  0  0  0  0
   -6.1317    0.0855    0.0000 N   0  0  0  0  0  0  0  0  0  0  0  0
   -7.5583    0.5490    0.0000 N   0  0  0  0  0  0  0  0  0  0  0  0
   -7.5583    2.0490    0.0000 N   0  0  0  0  0  0  0  0  0  0  0  0
   -6.1317    2.5126    0.0000 N   0  0  0  0  0  0  0  0  0  0  0  0
   -5.6682    3.9391    0.0000 C   0  0  0  0  0  0  0  0  0  0  0  0
   -4.2009    4.2510    0.0000 C   0  0  0  0  0  0  0  0  0  0  0  0
   -3.7374    5.6776    0.0000 C   0  0  0  0  0  0  0  0  0  0  0  0
   -4.7411    6.7923    0.0000 C   0  0  0  0  0  0  0  0  0  0  0  0
   -4.2776    8.2189    0.0000 C   0  0  0  0  0  0  0  0  0  0  0  0
   -5.2813    9.3336    0.0000 O   0  0  0  0  0  0  0  0  0  0  0  0
   -2.8104    8.5308    0.0000 N   0  0  0  0  0  0  0  0  0  0  0  0
   -2.3468    9.9574    0.0000 C   0  0  0  0  0  0  0  0  0  0  0  0
   -3.2285   11.1709    0.0000 N   0  0  0  0  0  0  0  0  0  0  0  0
   -2.3468   12.3844    0.0000 N   0  0  0  0  0  0  0  0  0  0  0  0
   -0.9202   11.9209    0.0000 N   0  0  0  0  0  0  0  0  0  0  0  0
   -0.9202   10.4209    0.0000 N   0  0  0  0  0  0  0  0  0  0  0  0
    0.2933    9.5392    0.0000 C   0  0  0  0  0  0  0  0  0  0  0  0
    0.1365    8.0474    0.0000 C   0  0  0  0  0  0  0  0  0  0  0  0
    1.3500    7.1657    0.0000 C   0  0  0  0  0  0  0  0  0  0  0  0
    2.7203    7.7758    0.0000 C   0  0  0  0  0  0  0  0  0  0  0  0
    2.8771    9.2676    0.0000 N   0  0  0  0  0  0  0  0  0  0  0  0
    1.6636   10.1493    0.0000 C   0  0  0  0  0  0  0  0  0  0  0  0
   -6.2083    6.4805    0.0000 C   0  0  0  0  0  0  0  0  0  0  0  0
   -6.6718    5.0539    0.0000 C   0  0  0  0  0  0  0  0  0  0  0  0
   -0.7500    1.2990    0.0000 C   0  0  0  0  0  0  0  0  0  0  0  0
    0.7500    1.2990    0.0000 C   0  0  0  0  0  0  0  0  0  0  0  0
  1  2  1  0
  2  3  1  0
  3  4  2  0
  4  5  1  0
  5  6  2  0
  6  7  1  0
  7  8  2  0
  7  9  1  0
  9 10  1  0
 10 11  2  0
 11 12  1  0
 12 13  2  0
 13 14  1  0
 14 15  1  0
 15 16  2  0
 16 17  1  0
 17 18  2  0
 18 19  1  0
 19 20  2  0
 19 21  1  0
 21 22  1  0
 22 23  2  0
 23 24  1  0
 24 25  2  0
 25 26  1  0
 26 27  1  0
 27 28  2  0
 28 29  1  0
 29 30  2  0
 30 31  1  0
 31 32  2  0
 18 33  1  0
 33 34  2  0
  6 35  1  0
 35 36  2  0
 36  3  1  0
 14 10  1  0
 34 15  1  0
 26 22  1  0
 32 27  1  0
M  END
>  <Title>  (1415) 
idACCKgen8

$$$$

     RDKit          2D

 26 29  0  0  0  0  0  0  0  0999 V2000
    3.2286   -0.0000    0.0000 O   0  0  0  0  0  0  0  0  0  0  0  0
    1.7286    0.0000    0.0000 C   0  0  0  0  0  0  0  0  0  0  0  0
    1.0777    1.3515    0.0000 N   0  0  0  0  0  0  0  0  0  0  0  0
   -0.3846    1.6852    0.0000 N   0  0  0  0  0  0  0  0  0  0  0  0
   -1.5574    0.7500    0.0000 N   0  0  0  0  0  0  0  0  0  0  0  0
   -1.5574   -0.7500    0.0000 N   0  0  0  0  0  0  0  0  0  0  0  0
   -0.3846   -1.6852    0.0000 N   0  0  0  0  0  0  0  0  0  0  0  0
   -0.8268   -3.1186    0.0000 C   0  0  0  0  0  0  0  0  0  0  0  0
   -2.2892   -3.4524    0.0000 O   0  0  0  0  0  0  0  0  0  0  0  0
    0.1935   -4.2182    0.0000 C   0  0  0  0  0  0  0  0  0  0  0  0
   -0.2487   -5.6515    0.0000 N   0  0  0  0  0  0  0  0  0  0  0  0
   -1.6681   -6.1363    0.0000 N   0  0  0  0  0  0  0  0  0  0  0  0
   -1.6457   -7.6362    0.0000 N   0  0  0  0  0  0  0  0  0  0  0  0
   -0.2123   -8.0783    0.0000 N   0  0  0  0  0  0  0  0  0  0  0  0
    0.6511   -6.8517    0.0000 C   0  0  0  0  0  0  0  0  0  0  0  0
    2.1509   -6.8293    0.0000 C   0  0  0  0  0  0  0  0  0  0  0  0
    2.8814   -5.5192    0.0000 C   0  0  0  0  0  0  0  0  0  0  0  0
    4.3812   -5.4967    0.0000 C   0  0  0  0  0  0  0  0  0  0  0  0
    5.1506   -6.7844    0.0000 C   0  0  0  0  0  0  0  0  0  0  0  0
    6.6504   -6.7620    0.0000 O   0  0  0  0  0  0  0  0  0  0  0  0
    4.4201   -8.0945    0.0000 C   0  0  0  0  0  0  0  0  0  0  0  0
    5.1894   -9.3822    0.0000 O   0  0  0  0  0  0  0  0  0  0  0  0
    2.9203   -8.1170    0.0000 C   0  0  0  0  0  0  0  0  0  0  0  0
    1.6559   -3.8844    0.0000 C   0  0  0  0  0  0  0  0  0  0  0  0
    2.0980   -2.4510    0.0000 C   0  0  0  0  0  0  0  0  0  0  0  0
    1.0777   -1.3515    0.0000 C   0  0  0  0  0  0  0  0  0  0  0  0
  1  2  2  0
  2  3  1  0
  3  4  1  0
  4  5  1  0
  5  6  1  0
  6  7  1  0
  7  8  1  0
  8  9  2  0
  8 10  1  0
 10 11  1  0
 11 12  1  0
 12 13  2  0
 13 14  1  0
 14 15  2  0
 15 16  1  0
 16 17  2  0
 17 18  1  0
 18 19  2  0
 19 20  1  0
 19 21  1  0
 21 22  1  0
 21 23  2  0
 10 24  2  0
 24 25  1  0
 25 26  2  0
 26  2  1  0
 26  7  1  0
 15 11  1  0
 23 16  1  0
M  END
>  <Title>  (1416) 
idACCLgen8

$$$$

     RDKit          2D

 34 39  0  0  0  0  0  0  0  0999 V2000
    3.0000    0.0000    0.0000 C   0  0  0  0  0  0  0  0  0  0  0  0
    1.5000    0.0000    0.0000 C   0  0  0  0  0  0  0  0  0  0  0  0
    0.7500    1.2990    0.0000 C   0  0  0  0  0  0  0  0  0  0  0  0
   -0.7500    1.2990    0.0000 C   0  0  0  0  0  0  0  0  0  0  0  0
   -1.5000    0.0000    0.0000 C   0  0  0  0  0  0  0  0  0  0  0  0
   -3.0000    0.0000    0.0000 C   0  0  0  0  0  0  0  0  0  0  0  0
   -3.8817   -1.2135    0.0000 N   0  0  0  0  0  0  0  0  0  0  0  0
   -5.3083   -0.7500    0.0000 N   0  0  0  0  0  0  0  0  0  0  0  0
   -5.3083    0.7500    0.0000 N   0  0  0  0  0  0  0  0  0  0  0  0
   -3.8817    1.2135    0.0000 N   0  0  0  0  0  0  0  0  0  0  0  0
   -3.4182    2.6401    0.0000 C   0  0  0  0  0  0  0  0  0  0  0  0
   -4.2998    3.8536    0.0000 C   0  0  0  0  0  0  0  0  0  0  0  0
   -3.4182    5.0672    0.0000 C   0  0  0  0  0  0  0  0  0  0  0  0
   -1.9916    4.6036    0.0000 C   0  0  0  0  0  0  0  0  0  0  0  0
   -0.7780    5.4853    0.0000 C   0  0  0  0  0  0  0  0  0  0  0  0
    0.6485    5.0218    0.0000 C   0  0  0  0  0  0  0  0  0  0  0  0
    1.5302    6.2353    0.0000 C   0  0  0  0  0  0  0  0  0  0  0  0
    0.6485    7.4488    0.0000 C   0  0  0  0  0  0  0  0  0  0  0  0
   -0.7780    6.9853    0.0000 N   0  0  0  0  0  0  0  0  0  0  0  0
   -1.9916    7.8670    0.0000 C   0  0  0  0  0  0  0  0  0  0  0  0
   -3.4182    7.4035    0.0000 N   0  0  0  0  0  0  0  0  0  0  0  0
   -4.2998    8.6170    0.0000 N   0  0  0  0  0  0  0  0  0  0  0  0
   -3.4182    9.8305    0.0000 N   0  0  0  0  0  0  0  0  0  0  0  0
   -1.9916    9.3670    0.0000 N   0  0  0  0  0  0  0  0  0  0  0  0
   -0.7780   10.2487    0.0000 C   0  0  0  0  0  0  0  0  0  0  0  0
   -0.9348   11.7405    0.0000 C   0  0  0  0  0  0  0  0  0  0  0  0
    0.2787   12.6221    0.0000 C   0  0  0  0  0  0  0  0  0  0  0  0
    1.6490   12.0120    0.0000 C   0  0  0  0  0  0  0  0  0  0  0  0
    1.8058   10.5202    0.0000 C   0  0  0  0  0  0  0  0  0  0  0  0
    0.5923    9.6386    0.0000 C   0  0  0  0  0  0  0  0  0  0  0  0
   -1.9916    3.1036    0.0000 C   0  0  0  0  0  0  0  0  0  0  0  0
   -0.7780    2.2220    0.0000 O   0  0  0  0  0  0  0  0  0  0  0  0
   -0.7500   -1.2990    0.0000 C   0  0  0  0  0  0  0  0  0  0  0  0
    0.7500   -1.2990    0.0000 C   0  0  0  0  0  0  0  0  0  0  0  0
  1  2  1  0
  2  3  2  0
  3  4  1  0
  4  5  2  0
  5  6  1  0
  6  7  2  0
  7  8  1  0
  8  9  2  0
  9 10  1  0
 10 11  1  0
 11 12  2  0
 12 13  1  0
 13 14  2  0
 14 15  1  0
 15 16  2  0
 16 17  1  0
 17 18  2  0
 18 19  1  0
 19 20  1  0
 20 21  2  0
 21 22  1  0
 22 23  2  0
 23 24  1  0
 24 25  1  0
 25 26  2  0
 26 27  1  0
 27 28  2  0
 28 29  1  0
 29 30  2  0
 14 31  1  0
 31 32  2  0
  5 33  1  0
 33 34  2  0
 34  2  1  0
 10  6  1  0
 31 11  1  0
 19 15  1  0
 24 20  1  0
 30 25  1  0
M  END
>  <Title>  (1417) 
idACCMgen8

$$$$

     RDKit          2D

  8  8  0  0  0  0  0  0  0  0999 V2000
    3.0000    0.0000    0.0000 N   0  0  0  0  0  0  0  0  0  0  0  0
    1.5000    0.0000    0.0000 C   0  0  0  0  0  0  0  0  0  0  0  0
    0.7500   -1.2990    0.0000 N   0  0  0  0  0  0  0  0  0  0  0  0
   -0.7500   -1.2990    0.0000 N   0  0  0  0  0  0  0  0  0  0  0  0
   -1.5000    0.0000    0.0000 C   0  0  0  0  0  0  0  0  0  0  0  0
   -0.7500    1.2990    0.0000 C   0  0  0  0  0  0  0  0  0  0  0  0
    0.7500    1.2990    0.0000 C   0  0  0  0  0  0  0  0  0  0  0  0
    1.5000    2.5981    0.0000 O   0  0  0  0  0  0  0  0  0  0  0  0
  1  2  1  0
  2  3  2  0
  3  4  1  0
  4  5  2  0
  5  6  1  0
  6  7  2  0
  7  8  1  0
  7  2  1  0
M  END
>  <Title>  (1418) 
idACCNgen8

$$$$

     RDKit          2D

 32 36  0  0  0  0  0  0  0  0999 V2000
    3.0000    0.0000    0.0000 C   0  0  0  0  0  0  0  0  0  0  0  0
    1.5000    0.0000    0.0000 C   0  0  0  0  0  0  0  0  0  0  0  0
    0.7500    1.2990    0.0000 C   0  0  0  0  0  0  0  0  0  0  0  0
   -0.7500    1.2990    0.0000 C   0  0  0  0  0  0  0  0  0  0  0  0
   -1.5000    0.0000    0.0000 C   0  0  0  0  0  0  0  0  0  0  0  0
   -3.0000    0.0000    0.0000 C   0  0  0  0  0  0  0  0  0  0  0  0
   -3.8817   -1.2135    0.0000 N   0  0  0  0  0  0  0  0  0  0  0  0
   -5.3083   -0.7500    0.0000 N   0  0  0  0  0  0  0  0  0  0  0  0
   -5.3083    0.7500    0.0000 N   0  0  0  0  0  0  0  0  0  0  0  0
   -3.8817    1.2135    0.0000 N   0  0  0  0  0  0  0  0  0  0  0  0
   -3.4182    2.6401    0.0000 C   0  0  0  0  0  0  0  0  0  0  0  0
   -1.9509    2.9520    0.0000 C   0  0  0  0  0  0  0  0  0  0  0  0
   -1.4874    4.3786    0.0000 C   0  0  0  0  0  0  0  0  0  0  0  0
   -2.4911    5.4933    0.0000 C   0  0  0  0  0  0  0  0  0  0  0  0
   -3.9583    5.1814    0.0000 C   0  0  0  0  0  0  0  0  0  0  0  0
   -4.4218    3.7548    0.0000 C   0  0  0  0  0  0  0  0  0  0  0  0
   -5.8891    3.4430    0.0000 C   0  0  0  0  0  0  0  0  0  0  0  0
   -6.4992    2.0726    0.0000 N   0  0  0  0  0  0  0  0  0  0  0  0
   -7.9910    2.2294    0.0000 N   0  0  0  0  0  0  0  0  0  0  0  0
   -8.3028    3.6967    0.0000 N   0  0  0  0  0  0  0  0  0  0  0  0
   -7.0038    4.4467    0.0000 N   0  0  0  0  0  0  0  0  0  0  0  0
   -6.8470    5.9384    0.0000 C   0  0  0  0  0  0  0  0  0  0  0  0
   -7.7910    7.1042    0.0000 C   0  0  0  0  0  0  0  0  0  0  0  0
   -9.2828    7.2610    0.0000 C   0  0  0  0  0  0  0  0  0  0  0  0
  -10.1644    6.0474    0.0000 O   0  0  0  0  0  0  0  0  0  0  0  0
   -9.8929    8.6313    0.0000 N   0  0  0  0  0  0  0  0  0  0  0  0
  -11.3846    8.7881    0.0000 O   0  0  0  0  0  0  0  0  0  0  0  0
   -6.6253    8.0481    0.0000 C   0  0  0  0  0  0  0  0  0  0  0  0
   -5.6813    6.8824    0.0000 C   0  0  0  0  0  0  0  0  0  0  0  0
   -0.7500   -1.2990    0.0000 C   0  0  0  0  0  0  0  0  0  0  0  0
   -1.5000   -2.5981    0.0000 O   0  0  0  0  0  0  0  0  0  0  0  0
    0.7500   -1.2990    0.0000 N   0  0  0  0  0  0  0  0  0  0  0  0
  1  2  1  0
  2  3  2  0
  3  4  1  0
  4  5  2  0
  5  6  1  0
  6  7  2  0
  7  8  1  0
  8  9  2  0
  9 10  1  0
 10 11  1  0
 11 12  1  0
 12 13  1  0
 13 14  1  0
 14 15  1  0
 15 16  1  0
 16 17  1  0
 17 18  2  0
 18 19  1  0
 19 20  2  0
 20 21  1  0
 21 22  1  0
 22 23  2  0
 23 24  1  0
 24 25  2  0
 24 26  1  0
 26 27  1  0
 23 28  1  0
 28 29  1  0
  5 30  1  0
 30 31  2  0
 30 32  1  0
 32  2  1  0
 10  6  1  0
 16 11  1  0
 21 17  1  0
 29 22  1  0
M  END
>  <Title>  (1419) 
idACCOgen8

$$$$

     RDKit          2D

 33 37  0  0  0  0  0  0  0  0999 V2000
    3.0000    0.0000    0.0000 C   0  0  0  0  0  0  0  0  0  0  0  0
    1.5000    0.0000    0.0000 C   0  0  0  0  0  0  0  0  0  0  0  0
    0.7500    1.2990    0.0000 C   0  0  0  0  0  0  0  0  0  0  0  0
   -0.7500    1.2990    0.0000 C   0  0  0  0  0  0  0  0  0  0  0  0
   -1.5000    0.0000    0.0000 C   0  0  0  0  0  0  0  0  0  0  0  0
   -3.0000    0.0000    0.0000 C   0  0  0  0  0  0  0  0  0  0  0  0
   -3.8817   -1.2135    0.0000 N   0  0  0  0  0  0  0  0  0  0  0  0
   -5.3083   -0.7500    0.0000 N   0  0  0  0  0  0  0  0  0  0  0  0
   -5.3083    0.7500    0.0000 N   0  0  0  0  0  0  0  0  0  0  0  0
   -3.8817    1.2135    0.0000 N   0  0  0  0  0  0  0  0  0  0  0  0
   -3.4182    2.6401    0.0000 C   0  0  0  0  0  0  0  0  0  0  0  0
   -4.2998    3.8536    0.0000 C   0  0  0  0  0  0  0  0  0  0  0  0
   -3.4182    5.0672    0.0000 C   0  0  0  0  0  0  0  0  0  0  0  0
   -1.9916    4.6036    0.0000 C   0  0  0  0  0  0  0  0  0  0  0  0
   -0.7780    5.4853    0.0000 C   0  0  0  0  0  0  0  0  0  0  0  0
    0.5923    4.8752    0.0000 O   0  0  0  0  0  0  0  0  0  0  0  0
   -0.9348    6.9771    0.0000 N   0  0  0  0  0  0  0  0  0  0  0  0
    0.2787    7.8588    0.0000 C   0  0  0  0  0  0  0  0  0  0  0  0
    1.7053    7.3952    0.0000 N   0  0  0  0  0  0  0  0  0  0  0  0
    2.5870    8.6088    0.0000 N   0  0  0  0  0  0  0  0  0  0  0  0
    1.7053    9.8223    0.0000 N   0  0  0  0  0  0  0  0  0  0  0  0
    0.2787    9.3588    0.0000 N   0  0  0  0  0  0  0  0  0  0  0  0
   -0.9348   10.2405    0.0000 C   0  0  0  0  0  0  0  0  0  0  0  0
   -2.3052    9.6303    0.0000 C   0  0  0  0  0  0  0  0  0  0  0  0
   -3.5187   10.5120    0.0000 C   0  0  0  0  0  0  0  0  0  0  0  0
   -3.3619   12.0038    0.0000 C   0  0  0  0  0  0  0  0  0  0  0  0
   -1.9916   12.6139    0.0000 C   0  0  0  0  0  0  0  0  0  0  0  0
   -0.7780   11.7322    0.0000 C   0  0  0  0  0  0  0  0  0  0  0  0
   -1.9916    3.1036    0.0000 C   0  0  0  0  0  0  0  0  0  0  0  0
   -0.7780    2.2220    0.0000 O   0  0  0  0  0  0  0  0  0  0  0  0
   -0.7500   -1.2990    0.0000 C   0  0  0  0  0  0  0  0  0  0  0  0
   -1.5000   -2.5981    0.0000 O   0  0  0  0  0  0  0  0  0  0  0  0
    0.7500   -1.2990    0.0000 N   0  0  0  0  0  0  0  0  0  0  0  0
  1  2  1  0
  2  3  2  0
  3  4  1  0
  4  5  2  0
  5  6  1  0
  6  7  2  0
  7  8  1  0
  8  9  2  0
  9 10  1  0
 10 11  1  0
 11 12  2  0
 12 13  1  0
 13 14  2  0
 14 15  1  0
 15 16  2  0
 15 17  1  0
 17 18  1  0
 18 19  2  0
 19 20  1  0
 20 21  2  0
 21 22  1  0
 22 23  1  0
 23 24  2  0
 24 25  1  0
 25 26  2  0
 26 27  1  0
 27 28  2  0
 14 29  1  0
 29 30  2  0
  5 31  1  0
 31 32  2  0
 31 33  1  0
 33  2  1  0
 10  6  1  0
 29 11  1  0
 22 18  1  0
 28 23  1  0
M  END
>  <Title>  (1420) 
idACCPgen8

$$$$

     RDKit          2D

 43 49  0  0  0  0  0  0  0  0999 V2000
   -8.2500   -6.4952    0.0000 C   0  0  0  0  0  0  0  0  0  0  0  0
   -7.5000   -5.1962    0.0000 C   0  0  0  0  0  0  0  0  0  0  0  0
   -6.0000   -5.1962    0.0000 C   0  0  0  0  0  0  0  0  0  0  0  0
   -5.2500   -3.8971    0.0000 C   0  0  0  0  0  0  0  0  0  0  0  0
   -6.0000   -2.5981    0.0000 C   0  0  0  0  0  0  0  0  0  0  0  0
   -5.2500   -1.2990    0.0000 N   0  0  0  0  0  0  0  0  0  0  0  0
   -6.0000    0.0000    0.0000 C   0  0  0  0  0  0  0  0  0  0  0  0
   -5.2500    1.2990    0.0000 N   0  0  0  0  0  0  0  0  0  0  0  0
   -3.7500    1.2990    0.0000 N   0  0  0  0  0  0  0  0  0  0  0  0
   -3.0000    0.0000    0.0000 N   0  0  0  0  0  0  0  0  0  0  0  0
   -3.7500   -1.2990    0.0000 N   0  0  0  0  0  0  0  0  0  0  0  0
   -3.0000   -2.5981    0.0000 C   0  0  0  0  0  0  0  0  0  0  0  0
   -3.7500   -3.8971    0.0000 C   0  0  0  0  0  0  0  0  0  0  0  0
   -3.0000   -5.1962    0.0000 C   0  0  0  0  0  0  0  0  0  0  0  0
   -1.5000   -5.1962    0.0000 C   0  0  0  0  0  0  0  0  0  0  0  0
   -0.7500   -6.4952    0.0000 C   0  0  0  0  0  0  0  0  0  0  0  0
    0.7418   -6.6520    0.0000 N   0  0  0  0  0  0  0  0  0  0  0  0
    1.0537   -8.1192    0.0000 N   0  0  0  0  0  0  0  0  0  0  0  0
   -0.2454   -8.8692    0.0000 N   0  0  0  0  0  0  0  0  0  0  0  0
   -1.3601   -7.8655    0.0000 N   0  0  0  0  0  0  0  0  0  0  0  0
   -2.8273   -8.1774    0.0000 C   0  0  0  0  0  0  0  0  0  0  0  0
   -3.9420   -7.1737    0.0000 N   0  0  0  0  0  0  0  0  0  0  0  0
   -5.2411   -7.9237    0.0000 N   0  0  0  0  0  0  0  0  0  0  0  0
   -4.9292   -9.3909    0.0000 N   0  0  0  0  0  0  0  0  0  0  0  0
   -3.4374   -9.5477    0.0000 N   0  0  0  0  0  0  0  0  0  0  0  0
   -2.6874  -10.8467    0.0000 C   0  0  0  0  0  0  0  0  0  0  0  0
   -1.1874  -10.8467    0.0000 C   0  0  0  0  0  0  0  0  0  0  0  0
   -0.4374  -12.1458    0.0000 C   0  0  0  0  0  0  0  0  0  0  0  0
   -1.1874  -13.4448    0.0000 C   0  0  0  0  0  0  0  0  0  0  0  0
   -2.6874  -13.4448    0.0000 C   0  0  0  0  0  0  0  0  0  0  0  0
   -3.4374  -12.1458    0.0000 C   0  0  0  0  0  0  0  0  0  0  0  0
   -0.7500   -3.8971    0.0000 C   0  0  0  0  0  0  0  0  0  0  0  0
   -1.5000   -2.5981    0.0000 C   0  0  0  0  0  0  0  0  0  0  0  0
   -0.7500   -1.2990    0.0000 C   0  0  0  0  0  0  0  0  0  0  0  0
    0.7500   -1.2990    0.0000 C   0  0  0  0  0  0  0  0  0  0  0  0
    1.5000   -0.0000    0.0000 C   0  0  0  0  0  0  0  0  0  0  0  0
    0.7500    1.2990    0.0000 C   0  0  0  0  0  0  0  0  0  0  0  0
    1.5000    2.5981    0.0000 C   0  0  0  0  0  0  0  0  0  0  0  0
   -0.7500    1.2990    0.0000 C   0  0  0  0  0  0  0  0  0  0  0  0
   -1.5000    2.5981    0.0000 O   0  0  0  0  0  0  0  0  0  0  0  0
   -1.5000   -0.0000    0.0000 N   0  0  0  0  0  0  0  0  0  0  0  0
   -7.5000   -2.5981    0.0000 C   0  0  0  0  0  0  0  0  0  0  0  0
   -8.2500   -3.8971    0.0000 C   0  0  0  0  0  0  0  0  0  0  0  0
  1  2  1  0
  2  3  2  0
  3  4  1  0
  4  5  2  0
  5  6  1  0
  6  7  1  0
  7  8  2  0
  8  9  1  0
  9 10  2  0
 10 11  1  0
 11 12  1  0
 12 13  2  0
 13 14  1  0
 14 15  2  0
 15 16  1  0
 16 17  2  0
 17 18  1  0
 18 19  2  0
 19 20  1  0
 20 21  1  0
 21 22  2  0
 22 23  1  0
 23 24  2  0
 24 25  1  0
 25 26  1  0
 26 27  2  0
 27 28  1  0
 28 29  2  0
 29 30  1  0
 30 31  2  0
 15 32  1  0
 32 33  2  0
 33 34  1  0
 34 35  2  0
 35 36  1  0
 36 37  2  0
 37 38  1  0
 37 39  1  0
 39 40  2  0
 39 41  1  0
  5 42  1  0
 42 43  2  0
 43  2  1  0
 11  6  1  0
 33 12  1  0
 41 34  1  0
 20 16  1  0
 25 21  1  0
 31 26  1  0
M  END
>  <Title>  (1421) 
idACCQgen8

$$$$

     RDKit          2D

 23 25  0  0  0  0  0  0  0  0999 V2000
    3.0000    0.0000    0.0000 C   0  0  0  0  0  0  0  0  0  0  0  0
    1.5000    0.0000    0.0000 C   0  0  0  0  0  0  0  0  0  0  0  0
    0.7500    1.2990    0.0000 C   0  0  0  0  0  0  0  0  0  0  0  0
   -0.7500    1.2990    0.0000 C   0  0  0  0  0  0  0  0  0  0  0  0
   -1.5000    0.0000    0.0000 C   0  0  0  0  0  0  0  0  0  0  0  0
   -3.0000    0.0000    0.0000 C   0  0  0  0  0  0  0  0  0  0  0  0
   -3.8817   -1.2135    0.0000 N   0  0  0  0  0  0  0  0  0  0  0  0
   -5.3083   -0.7500    0.0000 N   0  0  0  0  0  0  0  0  0  0  0  0
   -5.3083    0.7500    0.0000 N   0  0  0  0  0  0  0  0  0  0  0  0
   -3.8817    1.2135    0.0000 N   0  0  0  0  0  0  0  0  0  0  0  0
   -3.4182    2.6401    0.0000 C   0  0  0  0  0  0  0  0  0  0  0  0
   -1.9509    2.9520    0.0000 C   0  0  0  0  0  0  0  0  0  0  0  0
   -1.4874    4.3786    0.0000 C   0  0  0  0  0  0  0  0  0  0  0  0
   -2.4911    5.4933    0.0000 C   0  0  0  0  0  0  0  0  0  0  0  0
   -2.0276    6.9199    0.0000 C   0  0  0  0  0  0  0  0  0  0  0  0
   -3.0313    8.0346    0.0000 O   0  0  0  0  0  0  0  0  0  0  0  0
   -0.5604    7.2317    0.0000 N   0  0  0  0  0  0  0  0  0  0  0  0
   -0.0968    8.6583    0.0000 O   0  0  0  0  0  0  0  0  0  0  0  0
   -3.9583    5.1814    0.0000 C   0  0  0  0  0  0  0  0  0  0  0  0
   -4.4218    3.7548    0.0000 C   0  0  0  0  0  0  0  0  0  0  0  0
   -0.7500   -1.2990    0.0000 C   0  0  0  0  0  0  0  0  0  0  0  0
   -1.5000   -2.5981    0.0000 O   0  0  0  0  0  0  0  0  0  0  0  0
    0.7500   -1.2990    0.0000 N   0  0  0  0  0  0  0  0  0  0  0  0
  1  2  1  0
  2  3  2  0
  3  4  1  0
  4  5  2  0
  5  6  1  0
  6  7  2  0
  7  8  1  0
  8  9  2  0
  9 10  1  0
 10 11  1  0
 11 12  2  0
 12 13  1  0
 13 14  2  0
 14 15  1  0
 15 16  2  0
 15 17  1  0
 17 18  1  0
 14 19  1  0
 19 20  1  0
  5 21  1  0
 21 22  2  0
 21 23  1  0
 23  2  1  0
 10  6  1  0
 20 11  1  0
M  END
>  <Title>  (1422) 
idACCRgen8

$$$$

     RDKit          2D

 44 49  0  0  0  0  0  0  0  0999 V2000
    3.0000    0.0000    0.0000 C   0  0  0  0  0  0  0  0  0  0  0  0
    1.5000    0.0000    0.0000 C   0  0  0  0  0  0  0  0  0  0  0  0
    0.7500   -1.2990    0.0000 C   0  0  0  0  0  0  0  0  0  0  0  0
   -0.7500   -1.2990    0.0000 C   0  0  0  0  0  0  0  0  0  0  0  0
   -1.5000    0.0000    0.0000 C   0  0  0  0  0  0  0  0  0  0  0  0
   -3.0000    0.0000    0.0000 C   0  0  0  0  0  0  0  0  0  0  0  0
   -3.8817   -1.2135    0.0000 N   0  0  0  0  0  0  0  0  0  0  0  0
   -5.3083   -0.7500    0.0000 N   0  0  0  0  0  0  0  0  0  0  0  0
   -5.3083    0.7500    0.0000 N   0  0  0  0  0  0  0  0  0  0  0  0
   -3.8817    1.2135    0.0000 N   0  0  0  0  0  0  0  0  0  0  0  0
   -3.4182    2.6401    0.0000 C   0  0  0  0  0  0  0  0  0  0  0  0
   -1.9509    2.9520    0.0000 C   0  0  0  0  0  0  0  0  0  0  0  0
   -1.4874    4.3786    0.0000 C   0  0  0  0  0  0  0  0  0  0  0  0
   -2.4911    5.4933    0.0000 C   0  0  0  0  0  0  0  0  0  0  0  0
   -2.0276    6.9199    0.0000 C   0  0  0  0  0  0  0  0  0  0  0  0
   -0.5604    7.2317    0.0000 N   0  0  0  0  0  0  0  0  0  0  0  0
   -0.0968    8.6583    0.0000 C   0  0  0  0  0  0  0  0  0  0  0  0
   -1.1005    9.7730    0.0000 O   0  0  0  0  0  0  0  0  0  0  0  0
    1.3704    8.9702    0.0000 C   0  0  0  0  0  0  0  0  0  0  0  0
    2.3741    7.8555    0.0000 C   0  0  0  0  0  0  0  0  0  0  0  0
    3.8413    8.1673    0.0000 C   0  0  0  0  0  0  0  0  0  0  0  0
    4.3048    9.5939    0.0000 C   0  0  0  0  0  0  0  0  0  0  0  0
    5.7721    9.9058    0.0000 C   0  0  0  0  0  0  0  0  0  0  0  0
    6.2356   11.3324    0.0000 O   0  0  0  0  0  0  0  0  0  0  0  0
    6.7758    8.7911    0.0000 N   0  0  0  0  0  0  0  0  0  0  0  0
    8.2430    9.1029    0.0000 N   0  0  0  0  0  0  0  0  0  0  0  0
    3.3011   10.7086    0.0000 N   0  0  0  0  0  0  0  0  0  0  0  0
    1.8339   10.3968    0.0000 N   0  0  0  0  0  0  0  0  0  0  0  0
    0.8302   11.5115    0.0000 C   0  0  0  0  0  0  0  0  0  0  0  0
    1.2937   12.9381    0.0000 C   0  0  0  0  0  0  0  0  0  0  0  0
    0.2901   14.0528    0.0000 C   0  0  0  0  0  0  0  0  0  0  0  0
   -1.1772   13.7409    0.0000 C   0  0  0  0  0  0  0  0  0  0  0  0
   -2.1809   14.8556    0.0000 C   0  0  0  0  0  0  0  0  0  0  0  0
   -1.7173   16.2822    0.0000 C   0  0  0  0  0  0  0  0  0  0  0  0
   -2.7210   17.3969    0.0000 C   0  0  0  0  0  0  0  0  0  0  0  0
   -4.1883   17.0851    0.0000 C   0  0  0  0  0  0  0  0  0  0  0  0
   -4.6518   15.6585    0.0000 C   0  0  0  0  0  0  0  0  0  0  0  0
   -3.6481   14.5438    0.0000 C   0  0  0  0  0  0  0  0  0  0  0  0
   -1.6407   12.3143    0.0000 C   0  0  0  0  0  0  0  0  0  0  0  0
   -0.6370   11.1996    0.0000 C   0  0  0  0  0  0  0  0  0  0  0  0
   -3.9583    5.1814    0.0000 C   0  0  0  0  0  0  0  0  0  0  0  0
   -4.4218    3.7548    0.0000 C   0  0  0  0  0  0  0  0  0  0  0  0
   -0.7500    1.2990    0.0000 C   0  0  0  0  0  0  0  0  0  0  0  0
    0.7500    1.2990    0.0000 C   0  0  0  0  0  0  0  0  0  0  0  0
  1  2  1  0
  2  3  2  0
  3  4  1  0
  4  5  2  0
  5  6  1  0
  6  7  2  0
  7  8  1  0
  8  9  2  0
  9 10  1  0
 10 11  1  0
 11 12  2  0
 12 13  1  0
 13 14  2  0
 14 15  1  0
 15 16  1  0
 16 17  1  0
 17 18  2  0
 17 19  1  0
 19 20  2  0
 20 21  1  0
 21 22  2  0
 22 23  1  0
 23 24  2  0
 23 25  1  0
 25 26  1  0
 22 27  1  0
 27 28  1  0
 28 29  1  0
 29 30  2  0
 30 31  1  0
 31 32  2  0
 32 33  1  0
 33 34  2  0
 34 35  1  0
 35 36  2  0
 36 37  1  0
 37 38  2  0
 32 39  1  0
 39 40  2  0
 14 41  1  0
 41 42  2  0
  5 43  1  0
 43 44  2  0
 44  2  1  0
 10  6  1  0
 42 11  1  0
 28 19  1  0
 40 29  1  0
 38 33  1  0
M  END
>  <Title>  (1423) 
idACCSgen8

$$$$

     RDKit          2D

 20 22  0  0  0  0  0  0  0  0999 V2000
    5.5308    4.8321    0.0000 C   0  0  0  0  0  0  0  0  0  0  0  0
    4.1212    4.3191    0.0000 C   0  0  0  0  0  0  0  0  0  0  0  0
    4.1212    2.8191    0.0000 C   0  0  0  0  0  0  0  0  0  0  0  0
    3.1570    1.6700    0.0000 C   0  0  0  0  0  0  0  0  0  0  0  0
    1.6798    1.4095    0.0000 C   0  0  0  0  0  0  0  0  0  0  0  0
    2.1929    0.0000    0.0000 C   0  0  0  0  0  0  0  0  0  0  0  0
    1.6798   -1.4095    0.0000 C   0  0  0  0  0  0  0  0  0  0  0  0
    0.3808   -2.1595    0.0000 C   0  0  0  0  0  0  0  0  0  0  0  0
   -1.0964   -1.8991    0.0000 C   0  0  0  0  0  0  0  0  0  0  0  0
   -2.0606   -0.7500    0.0000 C   0  0  0  0  0  0  0  0  0  0  0  0
   -2.0606    0.7500    0.0000 C   0  0  0  0  0  0  0  0  0  0  0  0
   -1.0964    1.8991    0.0000 C   0  0  0  0  0  0  0  0  0  0  0  0
    0.3808    2.1595    0.0000 C   0  0  0  0  0  0  0  0  0  0  0  0
   -0.1322    3.5691    0.0000 N   0  0  0  0  0  0  0  0  0  0  0  0
   -1.6313    3.6214    0.0000 N   0  0  0  0  0  0  0  0  0  0  0  0
   -2.0448    5.0633    0.0000 N   0  0  0  0  0  0  0  0  0  0  0  0
   -0.8012    5.9021    0.0000 N   0  0  0  0  0  0  0  0  0  0  0  0
    0.3808    4.9786    0.0000 C   0  0  0  0  0  0  0  0  0  0  0  0
    1.6798    5.7286    0.0000 C   0  0  0  0  0  0  0  0  0  0  0  0
    3.1570    5.4681    0.0000 C   0  0  0  0  0  0  0  0  0  0  0  0
  1  2  1  0
  2  3  2  0
  3  4  1  0
  4  5  2  0
  5  6  1  0
  6  7  2  0
  7  8  1  0
  8  9  2  0
  9 10  1  0
 10 11  2  0
 11 12  1  0
 12 13  2  0
 13 14  1  0
 14 15  1  0
 15 16  2  0
 16 17  1  0
 17 18  2  0
 18 19  1  0
 19 20  1  0
 20  2  1  0
 13  5  1  0
 18 14  1  0
M  END
>  <Title>  (1424) 
idACCTgen8

$$$$

     RDKit          2D

 40 45  0  0  0  0  0  0  0  0999 V2000
    3.0000    0.0000    0.0000 C   0  0  0  0  0  0  0  0  0  0  0  0
    1.5000    0.0000    0.0000 C   0  0  0  0  0  0  0  0  0  0  0  0
    0.7500   -1.2990    0.0000 C   0  0  0  0  0  0  0  0  0  0  0  0
   -0.7500   -1.2990    0.0000 C   0  0  0  0  0  0  0  0  0  0  0  0
   -1.5000    0.0000    0.0000 C   0  0  0  0  0  0  0  0  0  0  0  0
   -3.0000    0.0000    0.0000 C   0  0  0  0  0  0  0  0  0  0  0  0
   -3.8817   -1.2135    0.0000 N   0  0  0  0  0  0  0  0  0  0  0  0
   -5.3083   -0.7500    0.0000 N   0  0  0  0  0  0  0  0  0  0  0  0
   -5.3083    0.7500    0.0000 N   0  0  0  0  0  0  0  0  0  0  0  0
   -3.8817    1.2135    0.0000 N   0  0  0  0  0  0  0  0  0  0  0  0
   -3.4182    2.6401    0.0000 C   0  0  0  0  0  0  0  0  0  0  0  0
   -1.9509    2.9520    0.0000 C   0  0  0  0  0  0  0  0  0  0  0  0
   -1.4874    4.3786    0.0000 C   0  0  0  0  0  0  0  0  0  0  0  0
   -2.4911    5.4933    0.0000 C   0  0  0  0  0  0  0  0  0  0  0  0
   -2.0276    6.9199    0.0000 C   0  0  0  0  0  0  0  0  0  0  0  0
   -0.5604    7.2317    0.0000 C   0  0  0  0  0  0  0  0  0  0  0  0
   -0.0968    8.6583    0.0000 C   0  0  0  0  0  0  0  0  0  0  0  0
   -1.1005    9.7730    0.0000 C   0  0  0  0  0  0  0  0  0  0  0  0
   -2.5677    9.4612    0.0000 N   0  0  0  0  0  0  0  0  0  0  0  0
   -3.0313    8.0346    0.0000 C   0  0  0  0  0  0  0  0  0  0  0  0
   -4.4985    7.7227    0.0000 C   0  0  0  0  0  0  0  0  0  0  0  0
   -5.5022    8.8374    0.0000 C   0  0  0  0  0  0  0  0  0  0  0  0
   -6.9694    8.5256    0.0000 C   0  0  0  0  0  0  0  0  0  0  0  0
   -7.4329    7.0990    0.0000 C   0  0  0  0  0  0  0  0  0  0  0  0
   -6.4292    5.9843    0.0000 C   0  0  0  0  0  0  0  0  0  0  0  0
   -4.9620    6.2961    0.0000 C   0  0  0  0  0  0  0  0  0  0  0  0
   -3.9583    5.1814    0.0000 C   0  0  0  0  0  0  0  0  0  0  0  0
   -4.4218    3.7548    0.0000 C   0  0  0  0  0  0  0  0  0  0  0  0
   -5.8891    3.4430    0.0000 C   0  0  0  0  0  0  0  0  0  0  0  0
   -6.8928    4.5577    0.0000 C   0  0  0  0  0  0  0  0  0  0  0  0
   -8.3600    4.2458    0.0000 C   0  0  0  0  0  0  0  0  0  0  0  0
   -8.8235    2.8192    0.0000 C   0  0  0  0  0  0  0  0  0  0  0  0
  -10.2907    2.5074    0.0000 C   0  0  0  0  0  0  0  0  0  0  0  0
  -10.7543    1.0808    0.0000 O   0  0  0  0  0  0  0  0  0  0  0  0
  -11.2944    3.6221    0.0000 N   0  0  0  0  0  0  0  0  0  0  0  0
  -12.7617    3.3102    0.0000 O   0  0  0  0  0  0  0  0  0  0  0  0
   -7.8198    1.7045    0.0000 C   0  0  0  0  0  0  0  0  0  0  0  0
   -6.3526    2.0164    0.0000 C   0  0  0  0  0  0  0  0  0  0  0  0
   -0.7500    1.2990    0.0000 C   0  0  0  0  0  0  0  0  0  0  0  0
    0.7500    1.2990    0.0000 N   0  0  0  0  0  0  0  0  0  0  0  0
  1  2  1  0
  2  3  2  0
  3  4  1  0
  4  5  2  0
  5  6  1  0
  6  7  2  0
  7  8  1  0
  8  9  2  0
  9 10  1  0
 10 11  1  0
 11 12  2  0
 12 13  1  0
 13 14  2  0
 14 15  1  0
 15 16  2  0
 16 17  1  0
 17 18  2  0
 18 19  1  0
 19 20  2  0
 20 21  1  0
 21 22  2  0
 22 23  1  0
 23 24  2  0
 24 25  1  0
 25 26  2  0
 14 27  1  0
 27 28  2  0
 28 29  1  0
 29 30  2  0
 30 31  1  0
 31 32  2  0
 32 33  1  0
 33 34  2  0
 33 35  1  0
 35 36  1  0
 32 37  1  0
 37 38  1  0
  5 39  1  0
 39 40  1  0
 40  2  1  0
 10  6  1  0
 28 11  1  0
 38 29  1  0
 20 15  1  0
 26 21  1  0
M  END
>  <Title>  (1425) 
idACCUgen8

$$$$

     RDKit          2D

 38 43  0  0  0  0  0  0  0  0999 V2000
   -7.0351    6.2089    0.0000 C   0  0  0  0  0  0  0  0  0  0  0  0
   -5.8215    7.0906    0.0000 C   0  0  0  0  0  0  0  0  0  0  0  0
   -5.9783    8.5824    0.0000 C   0  0  0  0  0  0  0  0  0  0  0  0
   -4.7648    9.4640    0.0000 C   0  0  0  0  0  0  0  0  0  0  0  0
   -3.3945    8.8539    0.0000 C   0  0  0  0  0  0  0  0  0  0  0  0
   -2.1810    9.7356    0.0000 C   0  0  0  0  0  0  0  0  0  0  0  0
   -2.1810   11.2356    0.0000 N   0  0  0  0  0  0  0  0  0  0  0  0
   -0.7544   11.6991    0.0000 N   0  0  0  0  0  0  0  0  0  0  0  0
    0.1273   10.4856    0.0000 N   0  0  0  0  0  0  0  0  0  0  0  0
   -0.7544    9.2721    0.0000 N   0  0  0  0  0  0  0  0  0  0  0  0
   -0.2908    7.8455    0.0000 C   0  0  0  0  0  0  0  0  0  0  0  0
   -1.5489    7.0285    0.0000 C   0  0  0  0  0  0  0  0  0  0  0  0
   -2.2298    5.6920    0.0000 C   0  0  0  0  0  0  0  0  0  0  0  0
   -2.1513    4.1941    0.0000 C   0  0  0  0  0  0  0  0  0  0  0  0
   -0.7248    4.6576    0.0000 C   0  0  0  0  0  0  0  0  0  0  0  0
    0.6118    3.9766    0.0000 C   0  0  0  0  0  0  0  0  0  0  0  0
    1.0753    2.5500    0.0000 C   0  0  0  0  0  0  0  0  0  0  0  0
    2.7581    3.1506    0.0000 C   0  0  0  0  0  0  0  0  0  0  0  0
    3.4391    4.4871    0.0000 C   0  0  0  0  0  0  0  0  0  0  0  0
    3.3606    5.9850    0.0000 C   0  0  0  0  0  0  0  0  0  0  0  0
    4.7871    6.4485    0.0000 C   0  0  0  0  0  0  0  0  0  0  0  0
    5.9019    5.4448    0.0000 C   0  0  0  0  0  0  0  0  0  0  0  0
    7.3285    5.9084    0.0000 C   0  0  0  0  0  0  0  0  0  0  0  0
    7.6403    7.3756    0.0000 C   0  0  0  0  0  0  0  0  0  0  0  0
    6.5256    8.3793    0.0000 C   0  0  0  0  0  0  0  0  0  0  0  0
    5.0990    7.9158    0.0000 C   0  0  0  0  0  0  0  0  0  0  0  0
    2.5436    7.2430    0.0000 C   0  0  0  0  0  0  0  0  0  0  0  0
    1.2071    7.9240    0.0000 C   0  0  0  0  0  0  0  0  0  0  0  0
    0.3943    1.2135    0.0000 N   0  0  0  0  0  0  0  0  0  0  0  0
    1.2760    0.0000    0.0000 N   0  0  0  0  0  0  0  0  0  0  0  0
    0.3943   -1.2135    0.0000 N   0  0  0  0  0  0  0  0  0  0  0  0
   -1.0323   -0.7500    0.0000 N   0  0  0  0  0  0  0  0  0  0  0  0
   -1.0323    0.7500    0.0000 C   0  0  0  0  0  0  0  0  0  0  0  0
   -2.3688    1.4310    0.0000 N   0  0  0  0  0  0  0  0  0  0  0  0
   -2.8323    2.8576    0.0000 C   0  0  0  0  0  0  0  0  0  0  0  0
   -4.3277    2.9753    0.0000 O   0  0  0  0  0  0  0  0  0  0  0  0
   -3.2377    7.3621    0.0000 C   0  0  0  0  0  0  0  0  0  0  0  0
   -4.4512    6.4805    0.0000 C   0  0  0  0  0  0  0  0  0  0  0  0
  1  2  1  0
  2  3  2  0
  3  4  1  0
  4  5  2  0
  5  6  1  0
  6  7  2  0
  7  8  1  0
  8  9  2  0
  9 10  1  0
 10 11  1  0
 11 12  2  0
 12 13  1  0
 13 14  2  0
 14 15  1  0
 15 16  2  0
 16 17  1  0
 17 18  2  0
 18 19  1  0
 19 20  2  0
 20 21  1  0
 21 22  2  0
 22 23  1  0
 23 24  2  0
 24 25  1  0
 25 26  2  0
 20 27  1  0
 27 28  2  0
 17 29  1  0
 29 30  1  0
 30 31  2  0
 31 32  1  0
 32 33  2  0
 33 34  1  0
 34 35  1  0
 35 36  2  0
  5 37  1  0
 37 38  2  0
 38  2  1  0
 10  6  1  0
 28 11  1  0
 33 29  1  0
 35 14  1  0
 26 21  1  0
M  END
>  <Title>  (1426) 
idACCVgen8

$$$$

     RDKit          2D

 43 48  0  0  0  0  0  0  0  0999 V2000
    3.7500   -1.2990    0.0000 C   0  0  0  0  0  0  0  0  0  0  0  0
    3.0000    0.0000    0.0000 O   0  0  0  0  0  0  0  0  0  0  0  0
    1.5000    0.0000    0.0000 C   0  0  0  0  0  0  0  0  0  0  0  0
    0.7500   -1.2990    0.0000 C   0  0  0  0  0  0  0  0  0  0  0  0
   -0.7500   -1.2990    0.0000 C   0  0  0  0  0  0  0  0  0  0  0  0
   -1.5000    0.0000    0.0000 C   0  0  0  0  0  0  0  0  0  0  0  0
   -3.0000    0.0000    0.0000 C   0  0  0  0  0  0  0  0  0  0  0  0
   -3.8817   -1.2135    0.0000 N   0  0  0  0  0  0  0  0  0  0  0  0
   -5.3083   -0.7500    0.0000 N   0  0  0  0  0  0  0  0  0  0  0  0
   -5.3083    0.7500    0.0000 N   0  0  0  0  0  0  0  0  0  0  0  0
   -3.8817    1.2135    0.0000 N   0  0  0  0  0  0  0  0  0  0  0  0
   -3.4182    2.6401    0.0000 C   0  0  0  0  0  0  0  0  0  0  0  0
   -1.9509    2.9520    0.0000 C   0  0  0  0  0  0  0  0  0  0  0  0
   -1.4874    4.3786    0.0000 C   0  0  0  0  0  0  0  0  0  0  0  0
   -2.4911    5.4933    0.0000 C   0  0  0  0  0  0  0  0  0  0  0  0
   -2.0276    6.9199    0.0000 C   0  0  0  0  0  0  0  0  0  0  0  0
   -3.0313    8.0346    0.0000 O   0  0  0  0  0  0  0  0  0  0  0  0
   -0.5604    7.2317    0.0000 N   0  0  0  0  0  0  0  0  0  0  0  0
   -0.0968    8.6583    0.0000 C   0  0  0  0  0  0  0  0  0  0  0  0
   -0.9785    9.8718    0.0000 N   0  0  0  0  0  0  0  0  0  0  0  0
   -0.0968   11.0854    0.0000 N   0  0  0  0  0  0  0  0  0  0  0  0
    1.3298   10.6218    0.0000 N   0  0  0  0  0  0  0  0  0  0  0  0
    1.3298    9.1218    0.0000 N   0  0  0  0  0  0  0  0  0  0  0  0
    2.5433    8.2402    0.0000 C   0  0  0  0  0  0  0  0  0  0  0  0
    2.3865    6.7484    0.0000 C   0  0  0  0  0  0  0  0  0  0  0  0
    3.6000    5.8667    0.0000 C   0  0  0  0  0  0  0  0  0  0  0  0
    4.9703    6.4768    0.0000 C   0  0  0  0  0  0  0  0  0  0  0  0
    5.1271    7.9686    0.0000 C   0  0  0  0  0  0  0  0  0  0  0  0
    3.9136    8.8503    0.0000 C   0  0  0  0  0  0  0  0  0  0  0  0
   -3.9583    5.1814    0.0000 C   0  0  0  0  0  0  0  0  0  0  0  0
   -4.4218    3.7548    0.0000 C   0  0  0  0  0  0  0  0  0  0  0  0
   -5.8891    3.4430    0.0000 C   0  0  0  0  0  0  0  0  0  0  0  0
   -6.8928    4.5577    0.0000 C   0  0  0  0  0  0  0  0  0  0  0  0
   -8.3600    4.2458    0.0000 C   0  0  0  0  0  0  0  0  0  0  0  0
   -8.8235    2.8192    0.0000 C   0  0  0  0  0  0  0  0  0  0  0  0
  -10.2907    2.5074    0.0000 C   0  0  0  0  0  0  0  0  0  0  0  0
  -10.7543    1.0808    0.0000 O   0  0  0  0  0  0  0  0  0  0  0  0
  -11.2944    3.6221    0.0000 N   0  0  0  0  0  0  0  0  0  0  0  0
  -12.7617    3.3102    0.0000 O   0  0  0  0  0  0  0  0  0  0  0  0
   -7.8198    1.7045    0.0000 C   0  0  0  0  0  0  0  0  0  0  0  0
   -6.3526    2.0164    0.0000 C   0  0  0  0  0  0  0  0  0  0  0  0
   -0.7500    1.2990    0.0000 N   0  0  0  0  0  0  0  0  0  0  0  0
    0.7500    1.2990    0.0000 N   0  0  0  0  0  0  0  0  0  0  0  0
  1  2  1  0
  2  3  1  0
  3  4  2  0
  4  5  1  0
  5  6  2  0
  6  7  1  0
  7  8  2  0
  8  9  1  0
  9 10  2  0
 10 11  1  0
 11 12  1  0
 12 13  2  0
 13 14  1  0
 14 15  2  0
 15 16  1  0
 16 17  2  0
 16 18  1  0
 18 19  1  0
 19 20  2  0
 20 21  1  0
 21 22  2  0
 22 23  1  0
 23 24  1  0
 24 25  2  0
 25 26  1  0
 26 27  2  0
 27 28  1  0
 28 29  2  0
 15 30  1  0
 30 31  2  0
 31 32  1  0
 32 33  2  0
 33 34  1  0
 34 35  2  0
 35 36  1  0
 36 37  2  0
 36 38  1  0
 38 39  1  0
 35 40  1  0
 40 41  1  0
  6 42  1  0
 42 43  2  0
 43  3  1  0
 11  7  1  0
 31 12  1  0
 41 32  1  0
 23 19  1  0
 29 24  1  0
M  END
>  <Title>  (1427) 
idACCWgen8

$$$$

     RDKit          2D

 44 50  0  0  0  0  0  0  0  0999 V2000
    0.8311   10.2038    0.0000 C   0  0  0  0  0  0  0  0  0  0  0  0
   -0.5392    9.5937    0.0000 C   0  0  0  0  0  0  0  0  0  0  0  0
   -1.7527   10.4753    0.0000 C   0  0  0  0  0  0  0  0  0  0  0  0
   -3.1230    9.8652    0.0000 C   0  0  0  0  0  0  0  0  0  0  0  0
   -3.2798    8.3735    0.0000 C   0  0  0  0  0  0  0  0  0  0  0  0
   -4.6502    7.7634    0.0000 C   0  0  0  0  0  0  0  0  0  0  0  0
   -5.9492    8.5134    0.0000 N   0  0  0  0  0  0  0  0  0  0  0  0
   -7.0639    7.5097    0.0000 N   0  0  0  0  0  0  0  0  0  0  0  0
   -6.4538    6.1393    0.0000 N   0  0  0  0  0  0  0  0  0  0  0  0
   -4.9620    6.2961    0.0000 N   0  0  0  0  0  0  0  0  0  0  0  0
   -3.9583    5.1814    0.0000 C   0  0  0  0  0  0  0  0  0  0  0  0
   -2.4911    5.4933    0.0000 C   0  0  0  0  0  0  0  0  0  0  0  0
   -1.4874    4.3786    0.0000 C   0  0  0  0  0  0  0  0  0  0  0  0
   -1.9509    2.9520    0.0000 C   0  0  0  0  0  0  0  0  0  0  0  0
   -3.4182    2.6401    0.0000 C   0  0  0  0  0  0  0  0  0  0  0  0
   -4.4218    3.7548    0.0000 C   0  0  0  0  0  0  0  0  0  0  0  0
   -5.8891    3.4430    0.0000 N   0  0  0  0  0  0  0  0  0  0  0  0
   -6.8928    4.5577    0.0000 N   0  0  0  0  0  0  0  0  0  0  0  0
   -8.3600    4.2458    0.0000 N   0  0  0  0  0  0  0  0  0  0  0  0
   -8.8235    2.8192    0.0000 N   0  0  0  0  0  0  0  0  0  0  0  0
   -7.8198    1.7045    0.0000 N   0  0  0  0  0  0  0  0  0  0  0  0
   -6.3526    2.0164    0.0000 N   0  0  0  0  0  0  0  0  0  0  0  0
   -5.3489    0.9017    0.0000 C   0  0  0  0  0  0  0  0  0  0  0  0
   -5.8124   -0.5249    0.0000 C   0  0  0  0  0  0  0  0  0  0  0  0
   -4.8087   -1.6396    0.0000 C   0  0  0  0  0  0  0  0  0  0  0  0
   -3.3415   -1.3278    0.0000 C   0  0  0  0  0  0  0  0  0  0  0  0
   -2.3378   -2.4425    0.0000 C   0  0  0  0  0  0  0  0  0  0  0  0
   -0.8706   -2.1306    0.0000 O   0  0  0  0  0  0  0  0  0  0  0  0
   -2.8013   -3.8691    0.0000 N   0  0  0  0  0  0  0  0  0  0  0  0
   -1.7976   -4.9838    0.0000 C   0  0  0  0  0  0  0  0  0  0  0  0
   -0.3059   -4.8270    0.0000 N   0  0  0  0  0  0  0  0  0  0  0  0
    0.3042   -6.1973    0.0000 N   0  0  0  0  0  0  0  0  0  0  0  0
   -0.8105   -7.2010    0.0000 N   0  0  0  0  0  0  0  0  0  0  0  0
   -2.1095   -6.4510    0.0000 N   0  0  0  0  0  0  0  0  0  0  0  0
   -3.4798   -7.0611    0.0000 C   0  0  0  0  0  0  0  0  0  0  0  0
   -4.6934   -6.1794    0.0000 C   0  0  0  0  0  0  0  0  0  0  0  0
   -6.0637   -6.7895    0.0000 C   0  0  0  0  0  0  0  0  0  0  0  0
   -6.2205   -8.2813    0.0000 C   0  0  0  0  0  0  0  0  0  0  0  0
   -5.0069   -9.1630    0.0000 C   0  0  0  0  0  0  0  0  0  0  0  0
   -3.6366   -8.5529    0.0000 C   0  0  0  0  0  0  0  0  0  0  0  0
   -2.8780    0.0988    0.0000 C   0  0  0  0  0  0  0  0  0  0  0  0
   -3.8817    1.2135    0.0000 C   0  0  0  0  0  0  0  0  0  0  0  0
   -2.0663    7.4918    0.0000 C   0  0  0  0  0  0  0  0  0  0  0  0
   -0.6960    8.1019    0.0000 C   0  0  0  0  0  0  0  0  0  0  0  0
  1  2  1  0
  2  3  2  0
  3  4  1  0
  4  5  2  0
  5  6  1  0
  6  7  2  0
  7  8  1  0
  8  9  2  0
  9 10  1  0
 10 11  1  0
 11 12  2  0
 12 13  1  0
 13 14  2  0
 14 15  1  0
 15 16  2  0
 16 17  1  0
 17 18  1  0
 18 19  2  0
 19 20  1  0
 20 21  2  0
 21 22  1  0
 22 23  1  0
 23 24  2  0
 24 25  1  0
 25 26  2  0
 26 27  1  0
 27 28  2  0
 27 29  1  0
 29 30  1  0
 30 31  2  0
 31 32  1  0
 32 33  2  0
 33 34  1  0
 34 35  1  0
 35 36  2  0
 36 37  1  0
 37 38  2  0
 38 39  1  0
 39 40  2  0
 26 41  1  0
 41 42  2  0
  5 43  1  0
 43 44  2  0
 44  2  1  0
 10  6  1  0
 16 11  1  0
 22 17  1  0
 42 23  1  0
 34 30  1  0
 40 35  1  0
M  END
>  <Title>  (1428) 
idACCXgen8

$$$$

     RDKit          2D

 50 51  0  0  0  0  0  0  0  0999 V2000
   -3.2753    2.3468    0.0000 C   0  0  0  0  0  0  0  0  0  0  0  0
   -1.8148    2.0051    0.0000 O   0  0  0  0  0  0  0  0  0  0  0  0
   -0.7885    3.0990    0.0000 C   0  0  0  0  0  0  0  0  0  0  0  0
   -1.8007    4.2060    0.0000 C   0  0  0  0  0  0  0  0  0  0  0  0
   -2.6321    5.4546    0.0000 C   0  0  0  0  0  0  0  0  0  0  0  0
   -3.2631    6.8154    0.0000 C   0  0  0  0  0  0  0  0  0  0  0  0
   -3.6791    8.2566    0.0000 C   0  0  0  0  0  0  0  0  0  0  0  0
   -3.8701    9.7444    0.0000 C   0  0  0  0  0  0  0  0  0  0  0  0
   -3.8318   11.2439    0.0000 C   0  0  0  0  0  0  0  0  0  0  0  0
   -3.5650   12.7200    0.0000 C   0  0  0  0  0  0  0  0  0  0  0  0
   -3.0761   14.1380    0.0000 C   0  0  0  0  0  0  0  0  0  0  0  0
   -2.3764   15.4648    0.0000 C   0  0  0  0  0  0  0  0  0  0  0  0
   -1.4824   16.6693    0.0000 C   0  0  0  0  0  0  0  0  0  0  0  0
   -0.4149   17.7232    0.0000 C   0  0  0  0  0  0  0  0  0  0  0  0
    0.8008   18.6017    0.0000 C   0  0  0  0  0  0  0  0  0  0  0  0
    2.1365   19.2844    0.0000 C   0  0  0  0  0  0  0  0  0  0  0  0
    3.5607   19.7552    0.0000 C   0  0  0  0  0  0  0  0  0  0  0  0
    5.0400   20.0031    0.0000 C   0  0  0  0  0  0  0  0  0  0  0  0
    6.5399   20.0223    0.0000 C   0  0  0  0  0  0  0  0  0  0  0  0
    8.0251   19.8122    0.0000 C   0  0  0  0  0  0  0  0  0  0  0  0
    9.4609   19.3780    0.0000 C   0  0  0  0  0  0  0  0  0  0  0  0
   10.8135   18.7296    0.0000 C   0  0  0  0  0  0  0  0  0  0  0  0
   12.0514   17.8824    0.0000 C   0  0  0  0  0  0  0  0  0  0  0  0
   13.1453   16.8561    0.0000 C   0  0  0  0  0  0  0  0  0  0  0  0
   14.0698   15.6749    0.0000 C   0  0  0  0  0  0  0  0  0  0  0  0
   14.8032   14.3664    0.0000 C   0  0  0  0  0  0  0  0  0  0  0  0
   15.3282   12.9612    0.0000 C   0  0  0  0  0  0  0  0  0  0  0  0
   15.6326   11.4925    0.0000 C   0  0  0  0  0  0  0  0  0  0  0  0
   15.7092    9.9944    0.0000 C   0  0  0  0  0  0  0  0  0  0  0  0
   15.5562    8.5022    0.0000 C   0  0  0  0  0  0  0  0  0  0  0  0
   15.1772    7.0509    0.0000 C   0  0  0  0  0  0  0  0  0  0  0  0
   14.5811    5.6744    0.0000 C   0  0  0  0  0  0  0  0  0  0  0  0
   13.7819    4.4051    0.0000 C   0  0  0  0  0  0  0  0  0  0  0  0
   12.7983    3.2726    0.0000 C   0  0  0  0  0  0  0  0  0  0  0  0
   11.6534    2.3035    0.0000 C   0  0  0  0  0  0  0  0  0  0  0  0
   10.3739    1.5206    0.0000 C   0  0  0  0  0  0  0  0  0  0  0  0
    8.9899    0.9421    0.0000 C   0  0  0  0  0  0  0  0  0  0  0  0
    7.5339    0.5817    0.0000 C   0  0  0  0  0  0  0  0  0  0  0  0
    6.0399    0.4478    0.0000 C   0  0  0  0  0  0  0  0  0  0  0  0
    4.5429    0.5435    0.0000 C   0  0  0  0  0  0  0  0  0  0  0  0
    3.0781    0.8666    0.0000 C   0  0  0  0  0  0  0  0  0  0  0  0
    1.6798    1.4095    0.0000 C   0  0  0  0  0  0  0  0  0  0  0  0
    2.1929    0.0000    0.0000 C   0  0  0  0  0  0  0  0  0  0  0  0
    1.6798   -1.4095    0.0000 C   0  0  0  0  0  0  0  0  0  0  0  0
    0.3808   -2.1595    0.0000 C   0  0  0  0  0  0  0  0  0  0  0  0
   -1.0964   -1.8991    0.0000 C   0  0  0  0  0  0  0  0  0  0  0  0
   -2.0606   -0.7500    0.0000 C   0  0  0  0  0  0  0  0  0  0  0  0
   -2.0606    0.7500    0.0000 C   0  0  0  0  0  0  0  0  0  0  0  0
   -1.0964    1.8991    0.0000 C   0  0  0  0  0  0  0  0  0  0  0  0
    0.3808    2.1595    0.0000 C   0  0  0  0  0  0  0  0  0  0  0  0
  1  2  1  0
  2  3  1  0
  3  4  2  0
  4  5  1  0
  5  6  2  0
  6  7  1  0
  7  8  2  0
  8  9  1  0
  9 10  2  0
 10 11  1  0
 11 12  2  0
 12 13  1  0
 13 14  2  0
 14 15  1  0
 15 16  2  0
 16 17  1  0
 17 18  2  0
 18 19  1  0
 19 20  2  0
 20 21  1  0
 21 22  2  0
 22 23  1  0
 23 24  2  0
 24 25  1  0
 25 26  2  0
 26 27  1  0
 27 28  2  0
 28 29  1  0
 29 30  2  0
 30 31  1  0
 31 32  2  0
 32 33  1  0
 33 34  2  0
 34 35  1  0
 35 36  2  0
 36 37  1  0
 37 38  2  0
 38 39  1  0
 39 40  2  0
 40 41  1  0
 41 42  2  0
 42 43  1  0
 43 44  2  0
 44 45  1  0
 45 46  2  0
 46 47  1  0
 47 48  2  0
 48 49  1  0
 49 50  2  0
 50  3  1  0
 50 42  1  0
M  END
>  <Title>  (1429) 
idACCYgen8

$$$$

     RDKit          2D

 14 15  0  0  0  0  0  0  0  0999 V2000
    1.6798    5.9095    0.0000 O   0  0  0  0  0  0  0  0  0  0  0  0
    1.6798    4.4095    0.0000 C   0  0  0  0  0  0  0  0  0  0  0  0
    2.9789    3.6595    0.0000 C   0  0  0  0  0  0  0  0  0  0  0  0
    2.9789    2.1595    0.0000 C   0  0  0  0  0  0  0  0  0  0  0  0
    1.6798    1.4095    0.0000 C   0  0  0  0  0  0  0  0  0  0  0  0
    2.1929    0.0000    0.0000 C   0  0  0  0  0  0  0  0  0  0  0  0
    1.6798   -1.4095    0.0000 C   0  0  0  0  0  0  0  0  0  0  0  0
    0.3808   -2.1595    0.0000 C   0  0  0  0  0  0  0  0  0  0  0  0
   -1.0964   -1.8991    0.0000 C   0  0  0  0  0  0  0  0  0  0  0  0
   -2.0606   -0.7500    0.0000 C   0  0  0  0  0  0  0  0  0  0  0  0
   -2.0606    0.7500    0.0000 C   0  0  0  0  0  0  0  0  0  0  0  0
   -1.0964    1.8991    0.0000 C   0  0  0  0  0  0  0  0  0  0  0  0
    0.3808    2.1595    0.0000 C   0  0  0  0  0  0  0  0  0  0  0  0
    0.3808    3.6595    0.0000 C   0  0  0  0  0  0  0  0  0  0  0  0
  1  2  1  0
  2  3  2  0
  3  4  1  0
  4  5  2  0
  5  6  1  0
  6  7  2  0
  7  8  1  0
  8  9  2  0
  9 10  1  0
 10 11  2  0
 11 12  1  0
 12 13  2  0
 13 14  1  0
 14  2  1  0
 13  5  1  0
M  END
>  <Title>  (1430) 
idACCZgen8

$$$$

     RDKit          2D

 36 40  0  0  0  0  0  0  0  0999 V2000
    3.7500   -1.2990    0.0000 C   0  0  0  0  0  0  0  0  0  0  0  0
    3.0000    0.0000    0.0000 O   0  0  0  0  0  0  0  0  0  0  0  0
    1.5000    0.0000    0.0000 C   0  0  0  0  0  0  0  0  0  0  0  0
    0.7500   -1.2990    0.0000 C   0  0  0  0  0  0  0  0  0  0  0  0
   -0.7500   -1.2990    0.0000 C   0  0  0  0  0  0  0  0  0  0  0  0
   -1.5000    0.0000    0.0000 C   0  0  0  0  0  0  0  0  0  0  0  0
   -3.0000    0.0000    0.0000 C   0  0  0  0  0  0  0  0  0  0  0  0
   -3.7500   -1.2990    0.0000 O   0  0  0  0  0  0  0  0  0  0  0  0
   -3.7500    1.2990    0.0000 N   0  0  0  0  0  0  0  0  0  0  0  0
   -5.2500    1.2990    0.0000 C   0  0  0  0  0  0  0  0  0  0  0  0
   -6.1317    0.0855    0.0000 N   0  0  0  0  0  0  0  0  0  0  0  0
   -7.5583    0.5490    0.0000 N   0  0  0  0  0  0  0  0  0  0  0  0
   -7.5583    2.0490    0.0000 N   0  0  0  0  0  0  0  0  0  0  0  0
   -6.1317    2.5126    0.0000 N   0  0  0  0  0  0  0  0  0  0  0  0
   -5.6682    3.9391    0.0000 C   0  0  0  0  0  0  0  0  0  0  0  0
   -6.5498    5.1527    0.0000 C   0  0  0  0  0  0  0  0  0  0  0  0
   -5.6682    6.3662    0.0000 C   0  0  0  0  0  0  0  0  0  0  0  0
   -4.2416    5.9027    0.0000 C   0  0  0  0  0  0  0  0  0  0  0  0
   -3.0280    6.7844    0.0000 C   0  0  0  0  0  0  0  0  0  0  0  0
   -1.6577    6.1742    0.0000 C   0  0  0  0  0  0  0  0  0  0  0  0
   -1.5009    4.6825    0.0000 C   0  0  0  0  0  0  0  0  0  0  0  0
   -0.1306    4.0724    0.0000 C   0  0  0  0  0  0  0  0  0  0  0  0
    1.0829    4.9540    0.0000 C   0  0  0  0  0  0  0  0  0  0  0  0
    0.9261    6.4458    0.0000 C   0  0  0  0  0  0  0  0  0  0  0  0
   -0.4442    7.0559    0.0000 C   0  0  0  0  0  0  0  0  0  0  0  0
   -0.6010    8.5477    0.0000 C   0  0  0  0  0  0  0  0  0  0  0  0
    0.6125    9.4294    0.0000 C   0  0  0  0  0  0  0  0  0  0  0  0
    0.4557   10.9212    0.0000 C   0  0  0  0  0  0  0  0  0  0  0  0
   -0.9146   11.5313    0.0000 C   0  0  0  0  0  0  0  0  0  0  0  0
   -2.1281   10.6496    0.0000 C   0  0  0  0  0  0  0  0  0  0  0  0
   -1.9713    9.1578    0.0000 C   0  0  0  0  0  0  0  0  0  0  0  0
   -4.2416    4.4027    0.0000 C   0  0  0  0  0  0  0  0  0  0  0  0
   -3.0280    3.5210    0.0000 O   0  0  0  0  0  0  0  0  0  0  0  0
   -0.7500    1.2990    0.0000 N   0  0  0  0  0  0  0  0  0  0  0  0
    0.7500    1.2990    0.0000 C   0  0  0  0  0  0  0  0  0  0  0  0
    1.5000    2.5981    0.0000 O   0  0  0  0  0  0  0  0  0  0  0  0
  1  2  1  0
  2  3  1  0
  3  4  2  0
  4  5  1  0
  5  6  2  0
  6  7  1  0
  7  8  2  0
  7  9  1  0
  9 10  1  0
 10 11  2  0
 11 12  1  0
 12 13  2  0
 13 14  1  0
 14 15  1  0
 15 16  2  0
 16 17  1  0
 17 18  2  0
 18 19  1  0
 19 20  1  0
 20 21  2  0
 21 22  1  0
 22 23  2  0
 23 24  1  0
 24 25  2  0
 25 26  1  0
 26 27  2  0
 27 28  1  0
 28 29  2  0
 29 30  1  0
 30 31  2  0
 18 32  1  0
 32 33  2  0
  6 34  1  0
 34 35  1  0
 35 36  2  0
 35  3  1  0
 14 10  1  0
 32 15  1  0
 25 20  1  0
 31 26  1  0
M  END
>  <Title>  (1431) 
idACDAgen8

$$$$

     RDKit          2D

 43 48  0  0  0  0  0  0  0  0999 V2000
    3.7500   -1.2990    0.0000 C   0  0  0  0  0  0  0  0  0  0  0  0
    3.0000    0.0000    0.0000 O   0  0  0  0  0  0  0  0  0  0  0  0
    1.5000    0.0000    0.0000 C   0  0  0  0  0  0  0  0  0  0  0  0
    0.7500   -1.2990    0.0000 C   0  0  0  0  0  0  0  0  0  0  0  0
   -0.7500   -1.2990    0.0000 C   0  0  0  0  0  0  0  0  0  0  0  0
   -1.5000    0.0000    0.0000 C   0  0  0  0  0  0  0  0  0  0  0  0
   -3.0000    0.0000    0.0000 C   0  0  0  0  0  0  0  0  0  0  0  0
   -3.8817   -1.2135    0.0000 N   0  0  0  0  0  0  0  0  0  0  0  0
   -5.3083   -0.7500    0.0000 N   0  0  0  0  0  0  0  0  0  0  0  0
   -5.3083    0.7500    0.0000 N   0  0  0  0  0  0  0  0  0  0  0  0
   -3.8817    1.2135    0.0000 N   0  0  0  0  0  0  0  0  0  0  0  0
   -3.4182    2.6401    0.0000 C   0  0  0  0  0  0  0  0  0  0  0  0
   -1.9509    2.9520    0.0000 C   0  0  0  0  0  0  0  0  0  0  0  0
   -1.4874    4.3786    0.0000 C   0  0  0  0  0  0  0  0  0  0  0  0
   -2.4911    5.4933    0.0000 C   0  0  0  0  0  0  0  0  0  0  0  0
   -2.0276    6.9199    0.0000 C   0  0  0  0  0  0  0  0  0  0  0  0
   -3.0313    8.0346    0.0000 O   0  0  0  0  0  0  0  0  0  0  0  0
   -0.5604    7.2317    0.0000 N   0  0  0  0  0  0  0  0  0  0  0  0
   -0.0968    8.6583    0.0000 C   0  0  0  0  0  0  0  0  0  0  0  0
   -0.9785    9.8718    0.0000 N   0  0  0  0  0  0  0  0  0  0  0  0
   -0.0968   11.0854    0.0000 N   0  0  0  0  0  0  0  0  0  0  0  0
    1.3298   10.6218    0.0000 N   0  0  0  0  0  0  0  0  0  0  0  0
    1.3298    9.1218    0.0000 N   0  0  0  0  0  0  0  0  0  0  0  0
    2.5433    8.2402    0.0000 C   0  0  0  0  0  0  0  0  0  0  0  0
    2.3865    6.7484    0.0000 C   0  0  0  0  0  0  0  0  0  0  0  0
    3.6000    5.8667    0.0000 C   0  0  0  0  0  0  0  0  0  0  0  0
    4.9703    6.4768    0.0000 C   0  0  0  0  0  0  0  0  0  0  0  0
    5.1271    7.9686    0.0000 C   0  0  0  0  0  0  0  0  0  0  0  0
    3.9136    8.8503    0.0000 C   0  0  0  0  0  0  0  0  0  0  0  0
   -3.9583    5.1814    0.0000 C   0  0  0  0  0  0  0  0  0  0  0  0
   -4.4218    3.7548    0.0000 C   0  0  0  0  0  0  0  0  0  0  0  0
   -5.8891    3.4430    0.0000 C   0  0  0  0  0  0  0  0  0  0  0  0
   -6.8928    4.5577    0.0000 C   0  0  0  0  0  0  0  0  0  0  0  0
   -8.3600    4.2458    0.0000 C   0  0  0  0  0  0  0  0  0  0  0  0
   -8.8235    2.8192    0.0000 C   0  0  0  0  0  0  0  0  0  0  0  0
  -10.2907    2.5074    0.0000 C   0  0  0  0  0  0  0  0  0  0  0  0
  -10.7543    1.0808    0.0000 O   0  0  0  0  0  0  0  0  0  0  0  0
  -11.2944    3.6221    0.0000 N   0  0  0  0  0  0  0  0  0  0  0  0
  -12.7617    3.3102    0.0000 O   0  0  0  0  0  0  0  0  0  0  0  0
   -7.8198    1.7045    0.0000 C   0  0  0  0  0  0  0  0  0  0  0  0
   -6.3526    2.0164    0.0000 C   0  0  0  0  0  0  0  0  0  0  0  0
   -0.7500    1.2990    0.0000 N   0  0  0  0  0  0  0  0  0  0  0  0
    0.7500    1.2990    0.0000 N   0  0  0  0  0  0  0  0  0  0  0  0
  1  2  1  0
  2  3  1  0
  3  4  2  0
  4  5  1  0
  5  6  2  0
  6  7  1  0
  7  8  2  0
  8  9  1  0
  9 10  2  0
 10 11  1  0
 11 12  1  0
 12 13  2  0
 13 14  1  0
 14 15  2  0
 15 16  1  0
 16 17  2  0
 16 18  1  0
 18 19  1  0
 19 20  2  0
 20 21  1  0
 21 22  2  0
 22 23  1  0
 23 24  1  0
 24 25  2  0
 25 26  1  0
 26 27  2  0
 27 28  1  0
 28 29  2  0
 15 30  1  0
 30 31  2  0
 31 32  1  0
 32 33  2  0
 33 34  1  0
 34 35  2  0
 35 36  1  0
 36 37  2  0
 36 38  1  0
 38 39  1  0
 35 40  1  0
 40 41  2  0
  6 42  1  0
 42 43  2  0
 43  3  1  0
 11  7  1  0
 31 12  1  0
 41 32  1  0
 23 19  1  0
 29 24  1  0
M  END
>  <Title>  (1432) 
idACDBgen8

$$$$

     RDKit          2D

 51 58  0  0  0  0  0  0  0  0999 V2000
    3.0000    0.0000    0.0000 C   0  0  0  0  0  0  0  0  0  0  0  0
    1.5000    0.0000    0.0000 C   0  0  0  0  0  0  0  0  0  0  0  0
    0.7500   -1.2990    0.0000 C   0  0  0  0  0  0  0  0  0  0  0  0
   -0.7500   -1.2990    0.0000 C   0  0  0  0  0  0  0  0  0  0  0  0
   -1.5000    0.0000    0.0000 C   0  0  0  0  0  0  0  0  0  0  0  0
   -3.0000    0.0000    0.0000 C   0  0  0  0  0  0  0  0  0  0  0  0
   -3.8817   -1.2135    0.0000 N   0  0  0  0  0  0  0  0  0  0  0  0
   -5.3083   -0.7500    0.0000 N   0  0  0  0  0  0  0  0  0  0  0  0
   -5.3083    0.7500    0.0000 N   0  0  0  0  0  0  0  0  0  0  0  0
   -3.8817    1.2135    0.0000 N   0  0  0  0  0  0  0  0  0  0  0  0
   -3.4182    2.6401    0.0000 C   0  0  0  0  0  0  0  0  0  0  0  0
   -1.9509    2.9520    0.0000 C   0  0  0  0  0  0  0  0  0  0  0  0
   -1.4874    4.3786    0.0000 C   0  0  0  0  0  0  0  0  0  0  0  0
   -2.4911    5.4933    0.0000 C   0  0  0  0  0  0  0  0  0  0  0  0
   -3.9583    5.1814    0.0000 C   0  0  0  0  0  0  0  0  0  0  0  0
   -4.4218    3.7548    0.0000 C   0  0  0  0  0  0  0  0  0  0  0  0
   -5.8891    3.4430    0.0000 C   0  0  0  0  0  0  0  0  0  0  0  0
   -6.4992    2.0726    0.0000 N   0  0  0  0  0  0  0  0  0  0  0  0
   -7.9910    2.2294    0.0000 N   0  0  0  0  0  0  0  0  0  0  0  0
   -8.3028    3.6967    0.0000 N   0  0  0  0  0  0  0  0  0  0  0  0
   -7.0038    4.4467    0.0000 N   0  0  0  0  0  0  0  0  0  0  0  0
   -6.8470    5.9384    0.0000 C   0  0  0  0  0  0  0  0  0  0  0  0
   -5.4767    6.5485    0.0000 C   0  0  0  0  0  0  0  0  0  0  0  0
   -5.3199    8.0403    0.0000 C   0  0  0  0  0  0  0  0  0  0  0  0
   -6.5334    8.9220    0.0000 C   0  0  0  0  0  0  0  0  0  0  0  0
   -6.3766   10.4138    0.0000 C   0  0  0  0  0  0  0  0  0  0  0  0
   -7.5901   11.2955    0.0000 O   0  0  0  0  0  0  0  0  0  0  0  0
   -5.0063   11.0239    0.0000 N   0  0  0  0  0  0  0  0  0  0  0  0
   -4.8495   12.5157    0.0000 C   0  0  0  0  0  0  0  0  0  0  0  0
   -3.4792   13.1258    0.0000 C   0  0  0  0  0  0  0  0  0  0  0  0
   -3.3224   14.6176    0.0000 C   0  0  0  0  0  0  0  0  0  0  0  0
   -4.5359   15.4992    0.0000 C   0  0  0  0  0  0  0  0  0  0  0  0
   -5.9062   14.8891    0.0000 C   0  0  0  0  0  0  0  0  0  0  0  0
   -6.0630   13.3974    0.0000 C   0  0  0  0  0  0  0  0  0  0  0  0
   -7.9037    8.3119    0.0000 C   0  0  0  0  0  0  0  0  0  0  0  0
   -8.0605    6.8201    0.0000 C   0  0  0  0  0  0  0  0  0  0  0  0
   -9.4308    6.2100    0.0000 C   0  0  0  0  0  0  0  0  0  0  0  0
   -9.7427    4.7428    0.0000 C   0  0  0  0  0  0  0  0  0  0  0  0
  -11.2345    4.5860    0.0000 C   0  0  0  0  0  0  0  0  0  0  0  0
  -11.8446    5.9563    0.0000 C   0  0  0  0  0  0  0  0  0  0  0  0
  -13.3118    6.2682    0.0000 C   0  0  0  0  0  0  0  0  0  0  0  0
  -13.7753    7.6948    0.0000 C   0  0  0  0  0  0  0  0  0  0  0  0
  -15.2426    8.0066    0.0000 C   0  0  0  0  0  0  0  0  0  0  0  0
  -16.2463    6.8919    0.0000 C   0  0  0  0  0  0  0  0  0  0  0  0
  -15.7827    5.4653    0.0000 C   0  0  0  0  0  0  0  0  0  0  0  0
  -14.3155    5.1535    0.0000 C   0  0  0  0  0  0  0  0  0  0  0  0
  -10.7299    6.9600    0.0000 C   0  0  0  0  0  0  0  0  0  0  0  0
  -10.8867    8.4518    0.0000 O   0  0  0  0  0  0  0  0  0  0  0  0
   -0.7500    1.2990    0.0000 N   0  0  0  0  0  0  0  0  0  0  0  0
    0.7500    1.2990    0.0000 C   0  0  0  0  0  0  0  0  0  0  0  0
    1.5000    2.5981    0.0000 O   0  0  0  0  0  0  0  0  0  0  0  0
  1  2  1  0
  2  3  2  0
  3  4  1  0
  4  5  2  0
  5  6  1  0
  6  7  2  0
  7  8  1  0
  8  9  2  0
  9 10  1  0
 10 11  1  0
 11 12  1  0
 12 13  1  0
 13 14  1  0
 14 15  1  0
 15 16  1  0
 16 17  1  0
 17 18  2  0
 18 19  1  0
 19 20  2  0
 20 21  1  0
 21 22  1  0
 22 23  2  0
 23 24  1  0
 24 25  2  0
 25 26  1  0
 26 27  2  0
 26 28  1  0
 28 29  1  0
 29 30  2  0
 30 31  1  0
 31 32  2  0
 32 33  1  0
 33 34  2  0
 25 35  1  0
 35 36  2  0
 36 37  1  0
 37 38  2  0
 38 39  1  0
 39 40  2  0
 40 41  1  0
 41 42  2  0
 42 43  1  0
 43 44  2  0
 44 45  1  0
 45 46  2  0
 40 47  1  0
 47 48  2  0
  5 49  1  0
 49 50  1  0
 50 51  2  0
 50  2  1  0
 10  6  1  0
 16 11  1  0
 21 17  1  0
 36 22  1  0
 47 37  1  0
 34 29  1  0
 46 41  1  0
M  END
>  <Title>  (1433) 
idACDCgen8

$$$$

     RDKit          2D

 37 37  0  0  0  0  0  0  0  0999 V2000
   10.1053    0.0000    0.0000 C   0  0  0  0  0  0  0  0  0  0  0  0
    8.6053    0.0000    0.0000 C   0  0  0  0  0  0  0  0  0  0  0  0
    8.4746   -1.4943    0.0000 C   0  0  0  0  0  0  0  0  0  0  0  0
    8.0863   -2.9432    0.0000 C   0  0  0  0  0  0  0  0  0  0  0  0
    7.4524   -4.3026    0.0000 C   0  0  0  0  0  0  0  0  0  0  0  0
    6.5920   -5.5314    0.0000 C   0  0  0  0  0  0  0  0  0  0  0  0
    5.5314   -6.5920    0.0000 C   0  0  0  0  0  0  0  0  0  0  0  0
    4.3026   -7.4524    0.0000 C   0  0  0  0  0  0  0  0  0  0  0  0
    2.9432   -8.0863    0.0000 C   0  0  0  0  0  0  0  0  0  0  0  0
    1.4943   -8.4746    0.0000 C   0  0  0  0  0  0  0  0  0  0  0  0
   -0.0000   -8.6053    0.0000 C   0  0  0  0  0  0  0  0  0  0  0  0
   -1.4943   -8.4746    0.0000 C   0  0  0  0  0  0  0  0  0  0  0  0
   -2.9432   -8.0863    0.0000 C   0  0  0  0  0  0  0  0  0  0  0  0
   -4.3026   -7.4524    0.0000 C   0  0  0  0  0  0  0  0  0  0  0  0
   -5.5314   -6.5920    0.0000 C   0  0  0  0  0  0  0  0  0  0  0  0
   -6.5920   -5.5314    0.0000 C   0  0  0  0  0  0  0  0  0  0  0  0
   -7.4524   -4.3026    0.0000 C   0  0  0  0  0  0  0  0  0  0  0  0
   -8.0863   -2.9432    0.0000 C   0  0  0  0  0  0  0  0  0  0  0  0
   -8.4746   -1.4943    0.0000 C   0  0  0  0  0  0  0  0  0  0  0  0
   -8.6053    0.0000    0.0000 C   0  0  0  0  0  0  0  0  0  0  0  0
   -8.4746    1.4943    0.0000 C   0  0  0  0  0  0  0  0  0  0  0  0
   -8.0863    2.9432    0.0000 C   0  0  0  0  0  0  0  0  0  0  0  0
   -7.4524    4.3026    0.0000 C   0  0  0  0  0  0  0  0  0  0  0  0
   -6.5920    5.5314    0.0000 C   0  0  0  0  0  0  0  0  0  0  0  0
   -5.5314    6.5920    0.0000 C   0  0  0  0  0  0  0  0  0  0  0  0
   -4.3026    7.4524    0.0000 C   0  0  0  0  0  0  0  0  0  0  0  0
   -2.9432    8.0863    0.0000 C   0  0  0  0  0  0  0  0  0  0  0  0
   -1.4943    8.4746    0.0000 C   0  0  0  0  0  0  0  0  0  0  0  0
    0.0000    8.6053    0.0000 C   0  0  0  0  0  0  0  0  0  0  0  0
    1.4943    8.4746    0.0000 C   0  0  0  0  0  0  0  0  0  0  0  0
    2.9432    8.0863    0.0000 C   0  0  0  0  0  0  0  0  0  0  0  0
    4.3026    7.4524    0.0000 C   0  0  0  0  0  0  0  0  0  0  0  0
    5.5314    6.5920    0.0000 C   0  0  0  0  0  0  0  0  0  0  0  0
    6.5920    5.5314    0.0000 C   0  0  0  0  0  0  0  0  0  0  0  0
    7.4524    4.3026    0.0000 C   0  0  0  0  0  0  0  0  0  0  0  0
    8.0863    2.9432    0.0000 C   0  0  0  0  0  0  0  0  0  0  0  0
    8.4746    1.4943    0.0000 C   0  0  0  0  0  0  0  0  0  0  0  0
  1  2  1  0
  2  3  2  0
  3  4  1  0
  4  5  2  0
  5  6  1  0
  6  7  2  0
  7  8  1  0
  8  9  2  0
  9 10  1  0
 10 11  2  0
 11 12  1  0
 12 13  2  0
 13 14  1  0
 14 15  2  0
 15 16  1  0
 16 17  2  0
 17 18  1  0
 18 19  2  0
 19 20  1  0
 20 21  2  0
 21 22  1  0
 22 23  2  0
 23 24  1  0
 24 25  2  0
 25 26  1  0
 26 27  2  0
 27 28  1  0
 28 29  2  0
 29 30  1  0
 30 31  2  0
 31 32  1  0
 32 33  2  0
 33 34  1  0
 34 35  2  0
 35 36  1  0
 36 37  2  0
 37  2  1  0
M  END
>  <Title>  (1434) 
idACDDgen8

$$$$

     RDKit          2D

 56 63  0  0  0  0  0  0  0  0999 V2000
    4.9845    9.0651    0.0000 C   0  0  0  0  0  0  0  0  0  0  0  0
    6.2485    8.2575    0.0000 C   0  0  0  0  0  0  0  0  0  0  0  0
    7.5799    8.9485    0.0000 C   0  0  0  0  0  0  0  0  0  0  0  0
    8.8440    8.1410    0.0000 C   0  0  0  0  0  0  0  0  0  0  0  0
    8.7767    6.6425    0.0000 C   0  0  0  0  0  0  0  0  0  0  0  0
   10.0408    5.8350    0.0000 C   0  0  0  0  0  0  0  0  0  0  0  0
   11.4371    6.3830    0.0000 C   0  0  0  0  0  0  0  0  0  0  0  0
   12.3898    5.2243    0.0000 N   0  0  0  0  0  0  0  0  0  0  0  0
   11.5822    3.9603    0.0000 N   0  0  0  0  0  0  0  0  0  0  0  0
   10.1305    4.3376    0.0000 N   0  0  0  0  0  0  0  0  0  0  0  0
    8.9719    3.3850    0.0000 C   0  0  0  0  0  0  0  0  0  0  0  0
    7.5675    3.9120    0.0000 C   0  0  0  0  0  0  0  0  0  0  0  0
    6.4089    2.9594    0.0000 C   0  0  0  0  0  0  0  0  0  0  0  0
    6.6546    1.4796    0.0000 C   0  0  0  0  0  0  0  0  0  0  0  0
    5.4960    0.5269    0.0000 C   0  0  0  0  0  0  0  0  0  0  0  0
    5.5857   -0.9704    0.0000 N   0  0  0  0  0  0  0  0  0  0  0  0
    4.1894   -1.5184    0.0000 N   0  0  0  0  0  0  0  0  0  0  0  0
    3.2367   -0.3598    0.0000 N   0  0  0  0  0  0  0  0  0  0  0  0
    4.0442    0.9043    0.0000 N   0  0  0  0  0  0  0  0  0  0  0  0
    3.4962    2.3006    0.0000 C   0  0  0  0  0  0  0  0  0  0  0  0
    4.4315    3.4734    0.0000 C   0  0  0  0  0  0  0  0  0  0  0  0
    3.8835    4.8697    0.0000 C   0  0  0  0  0  0  0  0  0  0  0  0
    2.4002    5.0933    0.0000 C   0  0  0  0  0  0  0  0  0  0  0  0
    1.8522    6.4896    0.0000 C   0  0  0  0  0  0  0  0  0  0  0  0
    0.3689    6.7131    0.0000 O   0  0  0  0  0  0  0  0  0  0  0  0
    2.7874    7.6623    0.0000 N   0  0  0  0  0  0  0  0  0  0  0  0
    2.2394    9.0586    0.0000 C   0  0  0  0  0  0  0  0  0  0  0  0
    3.1747   10.2314    0.0000 C   0  0  0  0  0  0  0  0  0  0  0  0
    2.6266   11.6277    0.0000 C   0  0  0  0  0  0  0  0  0  0  0  0
    1.1434   11.8512    0.0000 C   0  0  0  0  0  0  0  0  0  0  0  0
    0.2082   10.6785    0.0000 C   0  0  0  0  0  0  0  0  0  0  0  0
    0.7562    9.2822    0.0000 C   0  0  0  0  0  0  0  0  0  0  0  0
    1.4650    3.9205    0.0000 C   0  0  0  0  0  0  0  0  0  0  0  0
    2.0130    2.5242    0.0000 C   0  0  0  0  0  0  0  0  0  0  0  0
    1.0777    1.3515    0.0000 C   0  0  0  0  0  0  0  0  0  0  0  0
    1.7286    0.0000    0.0000 C   0  0  0  0  0  0  0  0  0  0  0  0
    1.0777   -1.3515    0.0000 C   0  0  0  0  0  0  0  0  0  0  0  0
   -0.3846   -1.6852    0.0000 N   0  0  0  0  0  0  0  0  0  0  0  0
   -1.5574   -0.7500    0.0000 N   0  0  0  0  0  0  0  0  0  0  0  0
   -1.5574    0.7500    0.0000 N   0  0  0  0  0  0  0  0  0  0  0  0
   -0.3846    1.6852    0.0000 N   0  0  0  0  0  0  0  0  0  0  0  0
   -0.7184    3.1476    0.0000 C   0  0  0  0  0  0  0  0  0  0  0  0
    0.2685    4.2772    0.0000 C   0  0  0  0  0  0  0  0  0  0  0  0
   -0.5009    5.5649    0.0000 C   0  0  0  0  0  0  0  0  0  0  0  0
   -1.9633    5.2311    0.0000 C   0  0  0  0  0  0  0  0  0  0  0  0
   -3.0929    6.2180    0.0000 N   0  0  0  0  0  0  0  0  0  0  0  0
   -2.8030    7.6898    0.0000 C   0  0  0  0  0  0  0  0  0  0  0  0
   -3.9326    8.6767    0.0000 C   0  0  0  0  0  0  0  0  0  0  0  0
   -3.6427   10.1484    0.0000 O   0  0  0  0  0  0  0  0  0  0  0  0
   -2.0977    3.7372    0.0000 C   0  0  0  0  0  0  0  0  0  0  0  0
   -3.3854    2.9678    0.0000 O   0  0  0  0  0  0  0  0  0  0  0  0
    8.0590    0.9526    0.0000 C   0  0  0  0  0  0  0  0  0  0  0  0
    8.3047   -0.5272    0.0000 O   0  0  0  0  0  0  0  0  0  0  0  0
    9.2176    1.9052    0.0000 N   0  0  0  0  0  0  0  0  0  0  0  0
    7.4453    5.9515    0.0000 C   0  0  0  0  0  0  0  0  0  0  0  0
    6.1812    6.7590    0.0000 C   0  0  0  0  0  0  0  0  0  0  0  0
  1  2  1  0
  2  3  2  0
  3  4  1  0
  4  5  2  0
  5  6  1  0
  6  7  2  0
  7  8  1  0
  8  9  2  0
  9 10  1  0
 10 11  1  0
 11 12  2  0
 12 13  1  0
 13 14  2  0
 14 15  1  0
 15 16  2  0
 16 17  1  0
 17 18  2  0
 18 19  1  0
 19 20  1  0
 20 21  2  0
 21 22  1  0
 22 23  2  0
 23 24  1  0
 24 25  2  0
 24 26  1  0
 26 27  1  0
 27 28  2  0
 28 29  1  0
 29 30  2  0
 30 31  1  0
 31 32  2  0
 23 33  1  0
 33 34  2  0
 34 35  1  0
 35 36  2  0
 36 37  1  0
 37 38  2  0
 38 39  1  0
 39 40  2  0
 40 41  1  0
 41 42  1  0
 42 43  2  0
 43 44  1  0
 44 45  2  0
 45 46  1  0
 46 47  1  0
 47 48  1  0
 48 49  2  0
 45 50  1  0
 50 51  2  0
 14 52  1  0
 52 53  2  0
 52 54  1  0
  5 55  1  0
 55 56  2  0
 56  2  1  0
 10  6  1  0
 54 11  1  0
 19 15  1  0
 34 20  1  0
 41 35  1  0
 50 42  1  0
 32 27  1  0
M  END
>  <Title>  (1435) 
idACDEgen8

$$$$

     RDKit          2D

 35 39  0  0  0  0  0  0  0  0999 V2000
  -10.1624    4.2767    0.0000 C   0  0  0  0  0  0  0  0  0  0  0  0
   -8.9488    3.3950    0.0000 C   0  0  0  0  0  0  0  0  0  0  0  0
   -9.1056    1.9033    0.0000 C   0  0  0  0  0  0  0  0  0  0  0  0
   -7.8921    1.0216    0.0000 C   0  0  0  0  0  0  0  0  0  0  0  0
   -6.5218    1.6317    0.0000 C   0  0  0  0  0  0  0  0  0  0  0  0
   -5.3083    0.7500    0.0000 C   0  0  0  0  0  0  0  0  0  0  0  0
   -5.3083   -0.7500    0.0000 C   0  0  0  0  0  0  0  0  0  0  0  0
   -3.8817   -1.2135    0.0000 N   0  0  0  0  0  0  0  0  0  0  0  0
   -3.0000    0.0000    0.0000 N   0  0  0  0  0  0  0  0  0  0  0  0
   -3.8817    1.2135    0.0000 N   0  0  0  0  0  0  0  0  0  0  0  0
   -3.4182    2.6401    0.0000 C   0  0  0  0  0  0  0  0  0  0  0  0
   -4.2998    3.8536    0.0000 C   0  0  0  0  0  0  0  0  0  0  0  0
   -3.4182    5.0672    0.0000 C   0  0  0  0  0  0  0  0  0  0  0  0
   -1.9916    4.6036    0.0000 C   0  0  0  0  0  0  0  0  0  0  0  0
   -0.7780    5.4853    0.0000 C   0  0  0  0  0  0  0  0  0  0  0  0
   -0.7780    6.9853    0.0000 N   0  0  0  0  0  0  0  0  0  0  0  0
    0.6485    7.4488    0.0000 N   0  0  0  0  0  0  0  0  0  0  0  0
    1.5302    6.2353    0.0000 N   0  0  0  0  0  0  0  0  0  0  0  0
    0.6485    5.0218    0.0000 N   0  0  0  0  0  0  0  0  0  0  0  0
    1.1121    3.5952    0.0000 C   0  0  0  0  0  0  0  0  0  0  0  0
    0.1084    2.4805    0.0000 C   0  0  0  0  0  0  0  0  0  0  0  0
    0.5719    1.0539    0.0000 C   0  0  0  0  0  0  0  0  0  0  0  0
    2.0391    0.7420    0.0000 C   0  0  0  0  0  0  0  0  0  0  0  0
    2.5026   -0.6846    0.0000 C   0  0  0  0  0  0  0  0  0  0  0  0
    1.4989   -1.7993    0.0000 O   0  0  0  0  0  0  0  0  0  0  0  0
    3.9699   -0.9964    0.0000 N   0  0  0  0  0  0  0  0  0  0  0  0
    4.4334   -2.4230    0.0000 O   0  0  0  0  0  0  0  0  0  0  0  0
    3.0428    1.8568    0.0000 C   0  0  0  0  0  0  0  0  0  0  0  0
    4.5100    1.5449    0.0000 O   0  0  0  0  0  0  0  0  0  0  0  0
    2.5793    3.2833    0.0000 N   0  0  0  0  0  0  0  0  0  0  0  0
   -1.9916    3.1036    0.0000 C   0  0  0  0  0  0  0  0  0  0  0  0
   -0.7780    2.2220    0.0000 O   0  0  0  0  0  0  0  0  0  0  0  0
   -6.3650    3.1235    0.0000 N   0  0  0  0  0  0  0  0  0  0  0  0
   -7.5785    4.0051    0.0000 C   0  0  0  0  0  0  0  0  0  0  0  0
   -7.4217    5.4969    0.0000 O   0  0  0  0  0  0  0  0  0  0  0  0
  1  2  1  0
  2  3  2  0
  3  4  1  0
  4  5  2  0
  5  6  1  0
  6  7  2  0
  7  8  1  0
  8  9  2  0
  9 10  1  0
 10 11  1  0
 11 12  2  0
 12 13  1  0
 13 14  2  0
 14 15  1  0
 15 16  2  0
 16 17  1  0
 17 18  2  0
 18 19  1  0
 19 20  1  0
 20 21  2  0
 21 22  1  0
 22 23  2  0
 23 24  1  0
 24 25  2  0
 24 26  1  0
 26 27  1  0
 23 28  1  0
 28 29  2  0
 28 30  1  0
 14 31  1  0
 31 32  2  0
  5 33  1  0
 33 34  1  0
 34 35  2  0
 34  2  1  0
 10  6  1  0
 31 11  1  0
 19 15  1  0
 30 20  1  0
M  END
>  <Title>  (1436) 
idACDFgen8

$$$$

     RDKit          2D

 19 19  0  0  0  0  0  0  0  0999 V2000
    5.3444    0.0000    0.0000 C   0  0  0  0  0  0  0  0  0  0  0  0
    3.8444    0.0000    0.0000 C   0  0  0  0  0  0  0  0  0  0  0  0
    3.5517   -1.4712    0.0000 C   0  0  0  0  0  0  0  0  0  0  0  0
    2.7184   -2.7184    0.0000 C   0  0  0  0  0  0  0  0  0  0  0  0
    1.4712   -3.5517    0.0000 C   0  0  0  0  0  0  0  0  0  0  0  0
    2.0452   -4.9376    0.0000 F   0  0  0  0  0  0  0  0  0  0  0  0
   -0.0000   -3.8444    0.0000 C   0  0  0  0  0  0  0  0  0  0  0  0
   -0.0000   -5.3444    0.0000 F   0  0  0  0  0  0  0  0  0  0  0  0
   -1.4712   -3.5517    0.0000 C   0  0  0  0  0  0  0  0  0  0  0  0
   -2.7184   -2.7184    0.0000 C   0  0  0  0  0  0  0  0  0  0  0  0
   -3.5517   -1.4712    0.0000 C   0  0  0  0  0  0  0  0  0  0  0  0
   -3.8444    0.0000    0.0000 C   0  0  0  0  0  0  0  0  0  0  0  0
   -3.5517    1.4712    0.0000 C   0  0  0  0  0  0  0  0  0  0  0  0
   -2.7184    2.7184    0.0000 C   0  0  0  0  0  0  0  0  0  0  0  0
   -1.4712    3.5517    0.0000 C   0  0  0  0  0  0  0  0  0  0  0  0
    0.0000    3.8444    0.0000 C   0  0  0  0  0  0  0  0  0  0  0  0
    1.4712    3.5517    0.0000 C   0  0  0  0  0  0  0  0  0  0  0  0
    2.7184    2.7184    0.0000 C   0  0  0  0  0  0  0  0  0  0  0  0
    3.5517    1.4712    0.0000 C   0  0  0  0  0  0  0  0  0  0  0  0
  1  2  1  0
  2  3  2  0
  3  4  1  0
  4  5  2  0
  5  6  1  0
  5  7  1  0
  7  8  1  0
  7  9  2  0
  9 10  1  0
 10 11  2  0
 11 12  1  0
 12 13  2  0
 13 14  1  0
 14 15  2  0
 15 16  1  0
 16 17  2  0
 17 18  1  0
 18 19  2  0
 19  2  1  0
M  END
>  <Title>  (1437) 
idACDGgen8

$$$$

     RDKit          2D

 16 16  0  0  0  0  0  0  0  0999 V2000
    5.1073    0.0000    0.0000 O   0  0  0  0  0  0  0  0  0  0  0  0
    3.6073    0.0000    0.0000 C   0  0  0  0  0  0  0  0  0  0  0  0
    3.2954    1.4672    0.0000 C   0  0  0  0  0  0  0  0  0  0  0  0
    2.4138    2.6807    0.0000 C   0  0  0  0  0  0  0  0  0  0  0  0
    1.1147    3.4307    0.0000 C   0  0  0  0  0  0  0  0  0  0  0  0
   -0.3771    3.5875    0.0000 C   0  0  0  0  0  0  0  0  0  0  0  0
   -1.8037    3.1240    0.0000 C   0  0  0  0  0  0  0  0  0  0  0  0
   -2.9184    2.1203    0.0000 C   0  0  0  0  0  0  0  0  0  0  0  0
   -3.5285    0.7500    0.0000 C   0  0  0  0  0  0  0  0  0  0  0  0
   -3.5285   -0.7500    0.0000 C   0  0  0  0  0  0  0  0  0  0  0  0
   -2.9184   -2.1203    0.0000 C   0  0  0  0  0  0  0  0  0  0  0  0
   -1.8037   -3.1240    0.0000 C   0  0  0  0  0  0  0  0  0  0  0  0
   -0.3771   -3.5875    0.0000 C   0  0  0  0  0  0  0  0  0  0  0  0
    1.1147   -3.4307    0.0000 C   0  0  0  0  0  0  0  0  0  0  0  0
    2.4138   -2.6807    0.0000 C   0  0  0  0  0  0  0  0  0  0  0  0
    3.2954   -1.4672    0.0000 C   0  0  0  0  0  0  0  0  0  0  0  0
  1  2  1  0
  2  3  2  0
  3  4  1  0
  4  5  2  0
  5  6  1  0
  6  7  2  0
  7  8  1  0
  8  9  2  0
  9 10  1  0
 10 11  2  0
 11 12  1  0
 12 13  2  0
 13 14  1  0
 14 15  2  0
 15 16  1  0
 16  2  1  0
M  END
>  <Title>  (1438) 
idACDHgen8

$$$$

     RDKit          2D

 23 23  0  0  0  0  0  0  0  0999 V2000
    6.7700    0.0000    0.0000 C   0  0  0  0  0  0  0  0  0  0  0  0
    5.2700    0.0000    0.0000 C   0  0  0  0  0  0  0  0  0  0  0  0
    5.0565   -1.4847    0.0000 C   0  0  0  0  0  0  0  0  0  0  0  0
    4.4334   -2.8492    0.0000 C   0  0  0  0  0  0  0  0  0  0  0  0
    3.4511   -3.9828    0.0000 C   0  0  0  0  0  0  0  0  0  0  0  0
    2.1892   -4.7938    0.0000 C   0  0  0  0  0  0  0  0  0  0  0  0
    0.7500   -5.2164    0.0000 C   0  0  0  0  0  0  0  0  0  0  0  0
   -0.7500   -5.2164    0.0000 C   0  0  0  0  0  0  0  0  0  0  0  0
   -2.1892   -4.7938    0.0000 C   0  0  0  0  0  0  0  0  0  0  0  0
   -3.4511   -3.9828    0.0000 C   0  0  0  0  0  0  0  0  0  0  0  0
   -4.4334   -2.8492    0.0000 C   0  0  0  0  0  0  0  0  0  0  0  0
   -5.0565   -1.4847    0.0000 C   0  0  0  0  0  0  0  0  0  0  0  0
   -5.2700    0.0000    0.0000 C   0  0  0  0  0  0  0  0  0  0  0  0
   -5.0565    1.4847    0.0000 C   0  0  0  0  0  0  0  0  0  0  0  0
   -4.4334    2.8492    0.0000 C   0  0  0  0  0  0  0  0  0  0  0  0
   -3.4511    3.9828    0.0000 C   0  0  0  0  0  0  0  0  0  0  0  0
   -2.1892    4.7938    0.0000 C   0  0  0  0  0  0  0  0  0  0  0  0
   -0.7500    5.2164    0.0000 C   0  0  0  0  0  0  0  0  0  0  0  0
    0.7500    5.2164    0.0000 C   0  0  0  0  0  0  0  0  0  0  0  0
    2.1892    4.7938    0.0000 C   0  0  0  0  0  0  0  0  0  0  0  0
    3.4511    3.9828    0.0000 C   0  0  0  0  0  0  0  0  0  0  0  0
    4.4334    2.8492    0.0000 C   0  0  0  0  0  0  0  0  0  0  0  0
    5.0565    1.4847    0.0000 C   0  0  0  0  0  0  0  0  0  0  0  0
  1  2  1  0
  2  3  2  0
  3  4  1  0
  4  5  2  0
  5  6  1  0
  6  7  2  0
  7  8  1  0
  8  9  2  0
  9 10  1  0
 10 11  2  0
 11 12  1  0
 12 13  2  0
 13 14  1  0
 14 15  2  0
 15 16  1  0
 16 17  2  0
 17 18  1  0
 18 19  2  0
 19 20  1  0
 20 21  2  0
 21 22  1  0
 22 23  2  0
 23  2  1  0
M  END
>  <Title>  (1439) 
idACDIgen8

$$$$

     RDKit          2D

 32 36  0  0  0  0  0  0  0  0999 V2000
    3.0000    0.0000    0.0000 C   0  0  0  0  0  0  0  0  0  0  0  0
    1.5000    0.0000    0.0000 C   0  0  0  0  0  0  0  0  0  0  0  0
    0.7500   -1.2990    0.0000 C   0  0  0  0  0  0  0  0  0  0  0  0
   -0.7500   -1.2990    0.0000 C   0  0  0  0  0  0  0  0  0  0  0  0
   -1.5000    0.0000    0.0000 C   0  0  0  0  0  0  0  0  0  0  0  0
   -3.0000    0.0000    0.0000 C   0  0  0  0  0  0  0  0  0  0  0  0
   -3.8817   -1.2135    0.0000 N   0  0  0  0  0  0  0  0  0  0  0  0
   -5.3083   -0.7500    0.0000 N   0  0  0  0  0  0  0  0  0  0  0  0
   -5.3083    0.7500    0.0000 N   0  0  0  0  0  0  0  0  0  0  0  0
   -3.8817    1.2135    0.0000 N   0  0  0  0  0  0  0  0  0  0  0  0
   -3.4182    2.6401    0.0000 C   0  0  0  0  0  0  0  0  0  0  0  0
   -2.0816    3.3211    0.0000 N   0  0  0  0  0  0  0  0  0  0  0  0
   -2.7626    4.6576    0.0000 C   0  0  0  0  0  0  0  0  0  0  0  0
   -2.2991    6.0842    0.0000 O   0  0  0  0  0  0  0  0  0  0  0  0
   -4.0991    3.9766    0.0000 N   0  0  0  0  0  0  0  0  0  0  0  0
   -5.5257    4.4401    0.0000 C   0  0  0  0  0  0  0  0  0  0  0  0
   -6.7392    3.5585    0.0000 N   0  0  0  0  0  0  0  0  0  0  0  0
   -7.9528    4.4401    0.0000 N   0  0  0  0  0  0  0  0  0  0  0  0
   -7.4892    5.8667    0.0000 N   0  0  0  0  0  0  0  0  0  0  0  0
   -5.9892    5.8667    0.0000 N   0  0  0  0  0  0  0  0  0  0  0  0
   -5.1076    7.0803    0.0000 C   0  0  0  0  0  0  0  0  0  0  0  0
   -3.6158    6.9235    0.0000 C   0  0  0  0  0  0  0  0  0  0  0  0
   -2.7341    8.1370    0.0000 C   0  0  0  0  0  0  0  0  0  0  0  0
   -3.3442    9.5073    0.0000 C   0  0  0  0  0  0  0  0  0  0  0  0
   -2.4625   10.7208    0.0000 C   0  0  0  0  0  0  0  0  0  0  0  0
   -3.0726   12.0912    0.0000 O   0  0  0  0  0  0  0  0  0  0  0  0
   -0.9708   10.5640    0.0000 N   0  0  0  0  0  0  0  0  0  0  0  0
   -0.0891   11.7776    0.0000 O   0  0  0  0  0  0  0  0  0  0  0  0
   -4.8360    9.6641    0.0000 C   0  0  0  0  0  0  0  0  0  0  0  0
   -5.7177    8.4506    0.0000 C   0  0  0  0  0  0  0  0  0  0  0  0
   -0.7500    1.2990    0.0000 C   0  0  0  0  0  0  0  0  0  0  0  0
    0.7500    1.2990    0.0000 C   0  0  0  0  0  0  0  0  0  0  0  0
  1  2  1  0
  2  3  2  0
  3  4  1  0
  4  5  2  0
  5  6  1  0
  6  7  2  0
  7  8  1  0
  8  9  2  0
  9 10  1  0
 10 11  1  0
 11 12  1  0
 12 13  1  0
 13 14  2  0
 13 15  1  0
 15 16  1  0
 16 17  2  0
 17 18  1  0
 18 19  2  0
 19 20  1  0
 20 21  1  0
 21 22  2  0
 22 23  1  0
 23 24  2  0
 24 25  1  0
 25 26  2  0
 25 27  1  0
 27 28  1  0
 24 29  1  0
 29 30  1  0
  5 31  1  0
 31 32  2  0
 32  2  1  0
 10  6  1  0
 15 11  1  0
 20 16  1  0
 30 21  1  0
M  END
>  <Title>  (1440) 
idACDJgen8

$$$$

     RDKit          2D

 45 51  0  0  0  0  0  0  0  0999 V2000
  -10.1624    4.2767    0.0000 C   0  0  0  0  0  0  0  0  0  0  0  0
   -8.9488    3.3950    0.0000 C   0  0  0  0  0  0  0  0  0  0  0  0
   -7.5785    4.0051    0.0000 C   0  0  0  0  0  0  0  0  0  0  0  0
   -6.3650    3.1235    0.0000 C   0  0  0  0  0  0  0  0  0  0  0  0
   -6.5218    1.6317    0.0000 C   0  0  0  0  0  0  0  0  0  0  0  0
   -5.3083    0.7500    0.0000 C   0  0  0  0  0  0  0  0  0  0  0  0
   -5.3083   -0.7500    0.0000 N   0  0  0  0  0  0  0  0  0  0  0  0
   -3.8817   -1.2135    0.0000 N   0  0  0  0  0  0  0  0  0  0  0  0
   -3.0000    0.0000    0.0000 N   0  0  0  0  0  0  0  0  0  0  0  0
   -3.8817    1.2135    0.0000 N   0  0  0  0  0  0  0  0  0  0  0  0
   -3.4182    2.6401    0.0000 C   0  0  0  0  0  0  0  0  0  0  0  0
   -4.2998    3.8536    0.0000 C   0  0  0  0  0  0  0  0  0  0  0  0
   -3.4182    5.0672    0.0000 N   0  0  0  0  0  0  0  0  0  0  0  0
   -1.9916    4.6036    0.0000 N   0  0  0  0  0  0  0  0  0  0  0  0
   -1.9916    3.1036    0.0000 N   0  0  0  0  0  0  0  0  0  0  0  0
   -0.7780    2.2220    0.0000 C   0  0  0  0  0  0  0  0  0  0  0  0
   -0.9348    0.7302    0.0000 C   0  0  0  0  0  0  0  0  0  0  0  0
    0.2787   -0.1515    0.0000 C   0  0  0  0  0  0  0  0  0  0  0  0
    1.6490    0.4586    0.0000 C   0  0  0  0  0  0  0  0  0  0  0  0
    2.8625   -0.4231    0.0000 C   0  0  0  0  0  0  0  0  0  0  0  0
    4.2891    0.0404    0.0000 N   0  0  0  0  0  0  0  0  0  0  0  0
    5.1708   -1.1731    0.0000 N   0  0  0  0  0  0  0  0  0  0  0  0
    4.2891   -2.3866    0.0000 N   0  0  0  0  0  0  0  0  0  0  0  0
    2.8625   -1.9231    0.0000 N   0  0  0  0  0  0  0  0  0  0  0  0
    1.6490   -2.8048    0.0000 C   0  0  0  0  0  0  0  0  0  0  0  0
    0.2787   -2.1946    0.0000 C   0  0  0  0  0  0  0  0  0  0  0  0
   -0.9348   -3.0763    0.0000 C   0  0  0  0  0  0  0  0  0  0  0  0
   -0.7780   -4.5681    0.0000 C   0  0  0  0  0  0  0  0  0  0  0  0
    0.5923   -5.1782    0.0000 C   0  0  0  0  0  0  0  0  0  0  0  0
    1.8058   -4.2965    0.0000 C   0  0  0  0  0  0  0  0  0  0  0  0
    1.8058    1.9504    0.0000 C   0  0  0  0  0  0  0  0  0  0  0  0
    0.5923    2.8321    0.0000 C   0  0  0  0  0  0  0  0  0  0  0  0
    0.7491    4.3238    0.0000 C   0  0  0  0  0  0  0  0  0  0  0  0
    2.1194    4.9340    0.0000 C   0  0  0  0  0  0  0  0  0  0  0  0
    2.2762    6.4257    0.0000 C   0  0  0  0  0  0  0  0  0  0  0  0
    1.0627    7.3074    0.0000 C   0  0  0  0  0  0  0  0  0  0  0  0
    1.2194    8.7992    0.0000 C   0  0  0  0  0  0  0  0  0  0  0  0
    0.0059    9.6809    0.0000 O   0  0  0  0  0  0  0  0  0  0  0  0
    2.5898    9.4093    0.0000 N   0  0  0  0  0  0  0  0  0  0  0  0
    2.7466   10.9011    0.0000 O   0  0  0  0  0  0  0  0  0  0  0  0
   -0.3077    6.6973    0.0000 C   0  0  0  0  0  0  0  0  0  0  0  0
   -0.4645    5.2055    0.0000 C   0  0  0  0  0  0  0  0  0  0  0  0
   -7.8921    1.0216    0.0000 C   0  0  0  0  0  0  0  0  0  0  0  0
   -8.0489   -0.4702    0.0000 O   0  0  0  0  0  0  0  0  0  0  0  0
   -9.1056    1.9033    0.0000 N   0  0  0  0  0  0  0  0  0  0  0  0
  1  2  1  0
  2  3  2  0
  3  4  1  0
  4  5  2  0
  5  6  1  0
  6  7  2  0
  7  8  1  0
  8  9  2  0
  9 10  1  0
 10 11  1  0
 11 12  2  0
 12 13  1  0
 13 14  2  0
 14 15  1  0
 15 16  1  0
 16 17  2  0
 17 18  1  0
 18 19  2  0
 19 20  1  0
 20 21  2  0
 21 22  1  0
 22 23  2  0
 23 24  1  0
 24 25  1  0
 25 26  2  0
 26 27  1  0
 27 28  2  0
 28 29  1  0
 29 30  2  0
 19 31  1  0
 31 32  2  0
 32 33  1  0
 33 34  2  0
 34 35  1  0
 35 36  2  0
 36 37  1  0
 37 38  2  0
 37 39  1  0
 39 40  1  0
 36 41  1  0
 41 42  1  0
  5 43  1  0
 43 44  2  0
 43 45  1  0
 45  2  1  0
 10  6  1  0
 15 11  1  0
 32 16  1  0
 42 33  1  0
 24 20  1  0
 30 25  1  0
M  END
>  <Title>  (1441) 
idACDKgen8

$$$$

     RDKit          2D

 51 59  0  0  0  0  0  0  0  0999 V2000
   -3.8817    6.4937    0.0000 C   0  0  0  0  0  0  0  0  0  0  0  0
   -3.4182    5.0672    0.0000 C   0  0  0  0  0  0  0  0  0  0  0  0
   -1.9916    4.6036    0.0000 C   0  0  0  0  0  0  0  0  0  0  0  0
   -1.9916    3.1036    0.0000 C   0  0  0  0  0  0  0  0  0  0  0  0
   -3.4182    2.6401    0.0000 C   0  0  0  0  0  0  0  0  0  0  0  0
   -3.8817    1.2135    0.0000 C   0  0  0  0  0  0  0  0  0  0  0  0
   -5.3083    0.7500    0.0000 N   0  0  0  0  0  0  0  0  0  0  0  0
   -5.3083   -0.7500    0.0000 N   0  0  0  0  0  0  0  0  0  0  0  0
   -3.8817   -1.2135    0.0000 N   0  0  0  0  0  0  0  0  0  0  0  0
   -3.0000    0.0000    0.0000 N   0  0  0  0  0  0  0  0  0  0  0  0
   -1.5000    0.0000    0.0000 C   0  0  0  0  0  0  0  0  0  0  0  0
   -0.7500    1.2990    0.0000 N   0  0  0  0  0  0  0  0  0  0  0  0
    0.7500    1.2990    0.0000 N   0  0  0  0  0  0  0  0  0  0  0  0
    1.5000   -0.0000    0.0000 N   0  0  0  0  0  0  0  0  0  0  0  0
    0.7500   -1.2990    0.0000 N   0  0  0  0  0  0  0  0  0  0  0  0
   -0.7500   -1.2990    0.0000 N   0  0  0  0  0  0  0  0  0  0  0  0
   -1.5000   -2.5981    0.0000 C   0  0  0  0  0  0  0  0  0  0  0  0
   -3.0000   -2.5981    0.0000 C   0  0  0  0  0  0  0  0  0  0  0  0
   -3.7500   -3.8971    0.0000 C   0  0  0  0  0  0  0  0  0  0  0  0
   -3.0000   -5.1962    0.0000 C   0  0  0  0  0  0  0  0  0  0  0  0
   -3.7500   -6.4952    0.0000 C   0  0  0  0  0  0  0  0  0  0  0  0
   -3.1399   -7.8655    0.0000 N   0  0  0  0  0  0  0  0  0  0  0  0
   -4.2546   -8.8692    0.0000 N   0  0  0  0  0  0  0  0  0  0  0  0
   -5.5537   -8.1192    0.0000 N   0  0  0  0  0  0  0  0  0  0  0  0
   -5.2418   -6.6520    0.0000 N   0  0  0  0  0  0  0  0  0  0  0  0
   -6.2455   -5.5373    0.0000 C   0  0  0  0  0  0  0  0  0  0  0  0
   -5.7820   -4.1107    0.0000 C   0  0  0  0  0  0  0  0  0  0  0  0
   -6.7856   -2.9960    0.0000 C   0  0  0  0  0  0  0  0  0  0  0  0
   -8.2529   -3.3078    0.0000 C   0  0  0  0  0  0  0  0  0  0  0  0
   -8.7164   -4.7344    0.0000 C   0  0  0  0  0  0  0  0  0  0  0  0
   -7.7127   -5.8491    0.0000 C   0  0  0  0  0  0  0  0  0  0  0  0
   -1.5000   -5.1962    0.0000 C   0  0  0  0  0  0  0  0  0  0  0  0
   -0.7500   -3.8971    0.0000 C   0  0  0  0  0  0  0  0  0  0  0  0
    0.7500   -3.8971    0.0000 C   0  0  0  0  0  0  0  0  0  0  0  0
    1.6317   -2.6836    0.0000 C   0  0  0  0  0  0  0  0  0  0  0  0
    3.0583   -3.1471    0.0000 C   0  0  0  0  0  0  0  0  0  0  0  0
    3.0583   -4.6471    0.0000 C   0  0  0  0  0  0  0  0  0  0  0  0
    4.2718   -5.5288    0.0000 C   0  0  0  0  0  0  0  0  0  0  0  0
    5.6984   -5.0653    0.0000 N   0  0  0  0  0  0  0  0  0  0  0  0
    6.5801   -6.2788    0.0000 N   0  0  0  0  0  0  0  0  0  0  0  0
    5.6984   -7.4923    0.0000 N   0  0  0  0  0  0  0  0  0  0  0  0
    4.2718   -7.0288    0.0000 N   0  0  0  0  0  0  0  0  0  0  0  0
    3.0583   -7.9105    0.0000 C   0  0  0  0  0  0  0  0  0  0  0  0
    1.6879   -7.3004    0.0000 C   0  0  0  0  0  0  0  0  0  0  0  0
    0.4744   -8.1820    0.0000 C   0  0  0  0  0  0  0  0  0  0  0  0
    0.6312   -9.6738    0.0000 C   0  0  0  0  0  0  0  0  0  0  0  0
    2.0015  -10.2839    0.0000 C   0  0  0  0  0  0  0  0  0  0  0  0
    3.2151   -9.4023    0.0000 C   0  0  0  0  0  0  0  0  0  0  0  0
    1.6317   -5.1106    0.0000 C   0  0  0  0  0  0  0  0  0  0  0  0
    1.1682   -6.5372    0.0000 O   0  0  0  0  0  0  0  0  0  0  0  0
   -4.2998    3.8536    0.0000 N   0  0  0  0  0  0  0  0  0  0  0  0
  1  2  1  0
  2  3  2  0
  3  4  1  0
  4  5  2  0
  5  6  1  0
  6  7  2  0
  7  8  1  0
  8  9  2  0
  9 10  1  0
 10 11  1  0
 11 12  1  0
 12 13  1  0
 13 14  1  0
 14 15  2  0
 15 16  1  0
 16 17  1  0
 17 18  2  0
 18 19  1  0
 19 20  2  0
 20 21  1  0
 21 22  2  0
 22 23  1  0
 23 24  2  0
 24 25  1  0
 25 26  1  0
 26 27  2  0
 27 28  1  0
 28 29  2  0
 29 30  1  0
 30 31  2  0
 20 32  1  0
 32 33  2  0
 33 34  1  0
 34 35  2  0
 35 36  1  0
 36 37  2  0
 37 38  1  0
 38 39  2  0
 39 40  1  0
 40 41  2  0
 41 42  1  0
 42 43  1  0
 43 44  2  0
 44 45  1  0
 45 46  2  0
 46 47  1  0
 47 48  2  0
 37 49  1  0
 49 50  2  0
  5 51  1  0
 51  2  1  0
 10  6  1  0
 16 11  1  0
 33 17  1  0
 49 34  1  0
 25 21  1  0
 31 26  1  0
 42 38  1  0
 48 43  1  0
M  END
>  <Title>  (1442) 
idACDLgen8

$$$$

     RDKit          2D

 25 27  0  0  0  0  0  0  0  0999 V2000
    3.2286   -0.0000    0.0000 C   0  0  0  0  0  0  0  0  0  0  0  0
    1.7286    0.0000    0.0000 C   0  0  0  0  0  0  0  0  0  0  0  0
    1.0777    1.3515    0.0000 C   0  0  0  0  0  0  0  0  0  0  0  0
   -0.3846    1.6852    0.0000 C   0  0  0  0  0  0  0  0  0  0  0  0
   -1.5574    0.7500    0.0000 C   0  0  0  0  0  0  0  0  0  0  0  0
   -2.9088    1.4008    0.0000 C   0  0  0  0  0  0  0  0  0  0  0  0
   -4.2297    0.6900    0.0000 N   0  0  0  0  0  0  0  0  0  0  0  0
   -5.3139    1.7266    0.0000 N   0  0  0  0  0  0  0  0  0  0  0  0
   -4.6631    3.0781    0.0000 N   0  0  0  0  0  0  0  0  0  0  0  0
   -3.1767    2.8767    0.0000 N   0  0  0  0  0  0  0  0  0  0  0  0
   -2.1401    3.9609    0.0000 C   0  0  0  0  0  0  0  0  0  0  0  0
   -0.6829    3.6053    0.0000 C   0  0  0  0  0  0  0  0  0  0  0  0
    0.3537    4.6895    0.0000 C   0  0  0  0  0  0  0  0  0  0  0  0
   -0.0669    6.1293    0.0000 C   0  0  0  0  0  0  0  0  0  0  0  0
    0.9697    7.2135    0.0000 C   0  0  0  0  0  0  0  0  0  0  0  0
    0.5491    8.6533    0.0000 O   0  0  0  0  0  0  0  0  0  0  0  0
    2.4269    6.8579    0.0000 N   0  0  0  0  0  0  0  0  0  0  0  0
    3.4635    7.9421    0.0000 O   0  0  0  0  0  0  0  0  0  0  0  0
   -1.5241    6.4849    0.0000 N   0  0  0  0  0  0  0  0  0  0  0  0
   -2.5607    5.4007    0.0000 C   0  0  0  0  0  0  0  0  0  0  0  0
   -4.0180    5.7563    0.0000 O   0  0  0  0  0  0  0  0  0  0  0  0
   -1.5574   -0.7500    0.0000 N   0  0  0  0  0  0  0  0  0  0  0  0
   -0.3846   -1.6852    0.0000 C   0  0  0  0  0  0  0  0  0  0  0  0
   -0.7184   -3.1476    0.0000 O   0  0  0  0  0  0  0  0  0  0  0  0
    1.0777   -1.3515    0.0000 N   0  0  0  0  0  0  0  0  0  0  0  0
  1  2  1  0
  2  3  2  0
  3  4  1  0
  4  5  2  0
  5  6  1  0
  6  7  2  0
  7  8  1  0
  8  9  2  0
  9 10  1  0
 10 11  1  0
 11 12  2  0
 12 13  1  0
 13 14  2  0
 14 15  1  0
 15 16  2  0
 15 17  1  0
 17 18  1  0
 14 19  1  0
 19 20  1  0
 20 21  2  0
  5 22  1  0
 22 23  1  0
 23 24  2  0
 23 25  1  0
 25  2  1  0
 10  6  1  0
 20 11  1  0
M  END
>  <Title>  (1443) 
idACDMgen8

$$$$

     RDKit          2D

 35 39  0  0  0  0  0  0  0  0999 V2000
    3.0000    0.0000    0.0000 C   0  0  0  0  0  0  0  0  0  0  0  0
    1.5000    0.0000    0.0000 C   0  0  0  0  0  0  0  0  0  0  0  0
    0.7500    1.2990    0.0000 C   0  0  0  0  0  0  0  0  0  0  0  0
   -0.7500    1.2990    0.0000 C   0  0  0  0  0  0  0  0  0  0  0  0
   -1.5000    0.0000    0.0000 C   0  0  0  0  0  0  0  0  0  0  0  0
   -3.0000    0.0000    0.0000 C   0  0  0  0  0  0  0  0  0  0  0  0
   -3.8817   -1.2135    0.0000 N   0  0  0  0  0  0  0  0  0  0  0  0
   -5.3083   -0.7500    0.0000 N   0  0  0  0  0  0  0  0  0  0  0  0
   -5.3083    0.7500    0.0000 N   0  0  0  0  0  0  0  0  0  0  0  0
   -3.8817    1.2135    0.0000 N   0  0  0  0  0  0  0  0  0  0  0  0
   -3.4182    2.6401    0.0000 C   0  0  0  0  0  0  0  0  0  0  0  0
   -4.2998    3.8536    0.0000 C   0  0  0  0  0  0  0  0  0  0  0  0
   -3.4182    5.0672    0.0000 C   0  0  0  0  0  0  0  0  0  0  0  0
   -1.9916    4.6036    0.0000 C   0  0  0  0  0  0  0  0  0  0  0  0
   -0.7780    5.4853    0.0000 C   0  0  0  0  0  0  0  0  0  0  0  0
    0.6485    5.0218    0.0000 N   0  0  0  0  0  0  0  0  0  0  0  0
    1.5302    6.2353    0.0000 N   0  0  0  0  0  0  0  0  0  0  0  0
    0.6485    7.4488    0.0000 N   0  0  0  0  0  0  0  0  0  0  0  0
   -0.7780    6.9853    0.0000 N   0  0  0  0  0  0  0  0  0  0  0  0
   -1.9916    7.8670    0.0000 C   0  0  0  0  0  0  0  0  0  0  0  0
   -3.3619    7.2569    0.0000 C   0  0  0  0  0  0  0  0  0  0  0  0
   -4.5754    8.1386    0.0000 C   0  0  0  0  0  0  0  0  0  0  0  0
   -4.4186    9.6303    0.0000 C   0  0  0  0  0  0  0  0  0  0  0  0
   -5.6321   10.5120    0.0000 C   0  0  0  0  0  0  0  0  0  0  0  0
   -7.0025    9.9019    0.0000 O   0  0  0  0  0  0  0  0  0  0  0  0
   -5.4754   12.0038    0.0000 N   0  0  0  0  0  0  0  0  0  0  0  0
   -6.6889   12.8855    0.0000 O   0  0  0  0  0  0  0  0  0  0  0  0
   -3.0483   10.2405    0.0000 N   0  0  0  0  0  0  0  0  0  0  0  0
   -1.8348    9.3588    0.0000 C   0  0  0  0  0  0  0  0  0  0  0  0
   -0.4645    9.9689    0.0000 O   0  0  0  0  0  0  0  0  0  0  0  0
   -1.9916    3.1036    0.0000 C   0  0  0  0  0  0  0  0  0  0  0  0
   -0.7780    2.2220    0.0000 O   0  0  0  0  0  0  0  0  0  0  0  0
   -0.7500   -1.2990    0.0000 C   0  0  0  0  0  0  0  0  0  0  0  0
   -1.5000   -2.5981    0.0000 O   0  0  0  0  0  0  0  0  0  0  0  0
    0.7500   -1.2990    0.0000 N   0  0  0  0  0  0  0  0  0  0  0  0
  1  2  1  0
  2  3  2  0
  3  4  1  0
  4  5  2  0
  5  6  1  0
  6  7  2  0
  7  8  1  0
  8  9  2  0
  9 10  1  0
 10 11  1  0
 11 12  2  0
 12 13  1  0
 13 14  2  0
 14 15  1  0
 15 16  2  0
 16 17  1  0
 17 18  2  0
 18 19  1  0
 19 20  1  0
 20 21  2  0
 21 22  1  0
 22 23  2  0
 23 24  1  0
 24 25  2  0
 24 26  1  0
 26 27  1  0
 23 28  1  0
 28 29  1  0
 29 30  2  0
 14 31  1  0
 31 32  2  0
  5 33  1  0
 33 34  2  0
 33 35  1  0
 35  2  1  0
 10  6  1  0
 31 11  1  0
 19 15  1  0
 29 20  1  0
M  END
>  <Title>  (1444) 
idACDNgen8

$$$$

     RDKit          2D

 32 36  0  0  0  0  0  0  0  0999 V2000
   -4.7407   10.5176    0.0000 O   0  0  0  0  0  0  0  0  0  0  0  0
   -3.3363    9.9905    0.0000 C   0  0  0  0  0  0  0  0  0  0  0  0
   -2.1777   10.9432    0.0000 N   0  0  0  0  0  0  0  0  0  0  0  0
   -0.7733   10.4162    0.0000 C   0  0  0  0  0  0  0  0  0  0  0  0
    0.3853   11.3688    0.0000 O   0  0  0  0  0  0  0  0  0  0  0  0
   -0.5276    8.9364    0.0000 C   0  0  0  0  0  0  0  0  0  0  0  0
   -1.6862    7.9837    0.0000 C   0  0  0  0  0  0  0  0  0  0  0  0
   -3.0906    8.5108    0.0000 C   0  0  0  0  0  0  0  0  0  0  0  0
   -4.2492    7.5581    0.0000 N   0  0  0  0  0  0  0  0  0  0  0  0
   -5.6536    8.0852    0.0000 N   0  0  0  0  0  0  0  0  0  0  0  0
   -6.8122    7.1325    0.0000 N   0  0  0  0  0  0  0  0  0  0  0  0
   -6.5665    5.6528    0.0000 N   0  0  0  0  0  0  0  0  0  0  0  0
   -5.1621    5.1257    0.0000 N   0  0  0  0  0  0  0  0  0  0  0  0
   -4.0035    6.0784    0.0000 N   0  0  0  0  0  0  0  0  0  0  0  0
   -2.5991    5.5513    0.0000 C   0  0  0  0  0  0  0  0  0  0  0  0
   -2.3534    4.0716    0.0000 C   0  0  0  0  0  0  0  0  0  0  0  0
   -0.9491    3.5445    0.0000 C   0  0  0  0  0  0  0  0  0  0  0  0
    0.2096    4.4972    0.0000 C   0  0  0  0  0  0  0  0  0  0  0  0
    1.6139    3.9701    0.0000 C   0  0  0  0  0  0  0  0  0  0  0  0
    2.8658    4.7965    0.0000 N   0  0  0  0  0  0  0  0  0  0  0  0
    4.0385    3.8613    0.0000 N   0  0  0  0  0  0  0  0  0  0  0  0
    3.5115    2.4569    0.0000 N   0  0  0  0  0  0  0  0  0  0  0  0
    2.0130    2.5242    0.0000 N   0  0  0  0  0  0  0  0  0  0  0  0
    1.0777    1.3515    0.0000 C   0  0  0  0  0  0  0  0  0  0  0  0
    1.7286    0.0000    0.0000 C   0  0  0  0  0  0  0  0  0  0  0  0
    1.0777   -1.3515    0.0000 C   0  0  0  0  0  0  0  0  0  0  0  0
   -0.3846   -1.6852    0.0000 C   0  0  0  0  0  0  0  0  0  0  0  0
   -1.5574   -0.7500    0.0000 C   0  0  0  0  0  0  0  0  0  0  0  0
   -1.5574    0.7500    0.0000 C   0  0  0  0  0  0  0  0  0  0  0  0
   -0.3846    1.6852    0.0000 C   0  0  0  0  0  0  0  0  0  0  0  0
   -0.0362    5.9769    0.0000 C   0  0  0  0  0  0  0  0  0  0  0  0
   -1.4405    6.5040    0.0000 C   0  0  0  0  0  0  0  0  0  0  0  0
  1  2  2  0
  2  3  1  0
  3  4  1  0
  4  5  1  0
  4  6  2  0
  6  7  1  0
  7  8  2  0
  8  9  1  0
  9 10  1  0
 10 11  2  0
 11 12  1  0
 12 13  2  0
 13 14  1  0
 14 15  1  0
 15 16  2  0
 16 17  1  0
 17 18  2  0
 18 19  1  0
 19 20  2  0
 20 21  1  0
 21 22  2  0
 22 23  1  0
 23 24  1  0
 24 25  1  0
 25 26  1  0
 26 27  1  0
 27 28  1  0
 28 29  1  0
 29 30  1  0
 18 31  1  0
 31 32  2  0
  8  2  1  0
 14  9  1  0
 32 15  1  0
 23 19  1  0
 30 24  1  0
M  END
>  <Title>  (1445) 
idACDOgen8

$$$$

     RDKit          2D

 14 14  0  0  0  0  0  0  0  0999 V2000
    6.2286    2.5981    0.0000 C   0  0  0  0  0  0  0  0  0  0  0  0
    5.4786    1.2990    0.0000 C   0  0  0  0  0  0  0  0  0  0  0  0
    6.2286   -0.0000    0.0000 O   0  0  0  0  0  0  0  0  0  0  0  0
    3.9786    1.2990    0.0000 N   0  0  0  0  0  0  0  0  0  0  0  0
    3.2286   -0.0000    0.0000 C   0  0  0  0  0  0  0  0  0  0  0  0
    3.9786   -1.2990    0.0000 O   0  0  0  0  0  0  0  0  0  0  0  0
    1.7286    0.0000    0.0000 C   0  0  0  0  0  0  0  0  0  0  0  0
    1.0777    1.3515    0.0000 C   0  0  0  0  0  0  0  0  0  0  0  0
   -0.3846    1.6852    0.0000 C   0  0  0  0  0  0  0  0  0  0  0  0
   -1.5574    0.7500    0.0000 C   0  0  0  0  0  0  0  0  0  0  0  0
   -1.5574   -0.7500    0.0000 C   0  0  0  0  0  0  0  0  0  0  0  0
   -0.3846   -1.6852    0.0000 C   0  0  0  0  0  0  0  0  0  0  0  0
    1.0777   -1.3515    0.0000 C   0  0  0  0  0  0  0  0  0  0  0  0
    2.0130   -2.5242    0.0000 C   0  0  0  0  0  0  0  0  0  0  0  0
  1  2  1  0
  2  3  2  0
  2  4  1  0
  4  5  1  0
  5  6  2  0
  5  7  1  0
  7  8  1  0
  8  9  1  0
  9 10  1  0
 10 11  1  0
 11 12  1  0
 12 13  1  0
 13 14  1  0
 13  7  1  0
M  END
>  <Title>  (1446) 
idACDPgen8

$$$$

     RDKit          2D

 23 24  0  0  0  0  0  0  0  0999 V2000
    5.3444    0.0000    0.0000 O   0  0  0  0  0  0  0  0  0  0  0  0
    3.8444    0.0000    0.0000 C   0  0  0  0  0  0  0  0  0  0  0  0
    3.5517   -1.4712    0.0000 C   0  0  0  0  0  0  0  0  0  0  0  0
    2.7184   -2.7184    0.0000 C   0  0  0  0  0  0  0  0  0  0  0  0
    1.4712   -3.5517    0.0000 C   0  0  0  0  0  0  0  0  0  0  0  0
   -0.0000   -3.8444    0.0000 C   0  0  0  0  0  0  0  0  0  0  0  0
   -1.4712   -3.5517    0.0000 C   0  0  0  0  0  0  0  0  0  0  0  0
   -2.7184   -2.7184    0.0000 C   0  0  0  0  0  0  0  0  0  0  0  0
   -3.5517   -1.4712    0.0000 C   0  0  0  0  0  0  0  0  0  0  0  0
   -3.8444    0.0000    0.0000 C   0  0  0  0  0  0  0  0  0  0  0  0
   -3.5517    1.4712    0.0000 C   0  0  0  0  0  0  0  0  0  0  0  0
   -2.7184    2.7184    0.0000 C   0  0  0  0  0  0  0  0  0  0  0  0
   -1.4712    3.5517    0.0000 C   0  0  0  0  0  0  0  0  0  0  0  0
    0.0000    3.8444    0.0000 C   0  0  0  0  0  0  0  0  0  0  0  0
    1.4712    3.5517    0.0000 C   0  0  0  0  0  0  0  0  0  0  0  0
    2.7184    2.7184    0.0000 C   0  0  0  0  0  0  0  0  0  0  0  0
    3.5517    1.4712    0.0000 C   0  0  0  0  0  0  0  0  0  0  0  0
    4.9376    2.0452    0.0000 C   0  0  0  0  0  0  0  0  0  0  0  0
    6.1276    1.1321    0.0000 C   0  0  0  0  0  0  0  0  0  0  0  0
    7.5134    1.7061    0.0000 C   0  0  0  0  0  0  0  0  0  0  0  0
    7.7092    3.1933    0.0000 C   0  0  0  0  0  0  0  0  0  0  0  0
    6.5192    4.1064    0.0000 C   0  0  0  0  0  0  0  0  0  0  0  0
    5.1333    3.5324    0.0000 C   0  0  0  0  0  0  0  0  0  0  0  0
  1  2  1  0
  2  3  2  0
  3  4  1  0
  4  5  2  0
  5  6  1  0
  6  7  2  0
  7  8  1  0
  8  9  2  0
  9 10  1  0
 10 11  2  0
 11 12  1  0
 12 13  2  0
 13 14  1  0
 14 15  2  0
 15 16  1  0
 16 17  2  0
 17 18  1  0
 18 19  2  0
 19 20  1  0
 20 21  2  0
 21 22  1  0
 22 23  2  0
 17  2  1  0
 23 18  1  0
M  END
>  <Title>  (1447) 
idACDQgen8

$$$$

     RDKit          2D

 16 16  0  0  0  0  0  0  0  0999 V2000
    5.6205   -1.2990    0.0000 O   0  0  0  0  0  0  0  0  0  0  0  0
    4.8705    0.0000    0.0000 C   0  0  0  0  0  0  0  0  0  0  0  0
    3.3705    0.0000    0.0000 C   0  0  0  0  0  0  0  0  0  0  0  0
    3.0367   -1.4624    0.0000 C   0  0  0  0  0  0  0  0  0  0  0  0
    2.1015   -2.6351    0.0000 C   0  0  0  0  0  0  0  0  0  0  0  0
    0.7500   -3.2860    0.0000 C   0  0  0  0  0  0  0  0  0  0  0  0
   -0.7500   -3.2860    0.0000 C   0  0  0  0  0  0  0  0  0  0  0  0
   -2.1015   -2.6351    0.0000 C   0  0  0  0  0  0  0  0  0  0  0  0
   -3.0367   -1.4624    0.0000 C   0  0  0  0  0  0  0  0  0  0  0  0
   -3.3705    0.0000    0.0000 C   0  0  0  0  0  0  0  0  0  0  0  0
   -3.0367    1.4624    0.0000 C   0  0  0  0  0  0  0  0  0  0  0  0
   -2.1015    2.6351    0.0000 C   0  0  0  0  0  0  0  0  0  0  0  0
   -0.7500    3.2860    0.0000 C   0  0  0  0  0  0  0  0  0  0  0  0
    0.7500    3.2860    0.0000 C   0  0  0  0  0  0  0  0  0  0  0  0
    2.1015    2.6351    0.0000 C   0  0  0  0  0  0  0  0  0  0  0  0
    3.0367    1.4624    0.0000 C   0  0  0  0  0  0  0  0  0  0  0  0
  1  2  1  0
  2  3  1  0
  3  4  2  0
  4  5  1  0
  5  6  2  0
  6  7  1  0
  7  8  2  0
  8  9  1  0
  9 10  2  0
 10 11  1  0
 11 12  2  0
 12 13  1  0
 13 14  2  0
 14 15  1  0
 15 16  2  0
 16  3  1  0
M  END
>  <Title>  (1448) 
idACDRgen8

$$$$

     RDKit          2D

 21 21  0  0  0  0  0  0  0  0999 V2000
    6.2943    0.0000    0.0000 C   0  0  0  0  0  0  0  0  0  0  0  0
    4.7943    0.0000    0.0000 C   0  0  0  0  0  0  0  0  0  0  0  0
    4.5597   -1.4815    0.0000 C   0  0  0  0  0  0  0  0  0  0  0  0
    3.8787   -2.8180    0.0000 C   0  0  0  0  0  0  0  0  0  0  0  0
    2.8180   -3.8787    0.0000 C   0  0  0  0  0  0  0  0  0  0  0  0
    1.4815   -4.5597    0.0000 C   0  0  0  0  0  0  0  0  0  0  0  0
   -0.0000   -4.7943    0.0000 C   0  0  0  0  0  0  0  0  0  0  0  0
   -1.4815   -4.5597    0.0000 C   0  0  0  0  0  0  0  0  0  0  0  0
   -2.8180   -3.8787    0.0000 C   0  0  0  0  0  0  0  0  0  0  0  0
   -3.8787   -2.8180    0.0000 C   0  0  0  0  0  0  0  0  0  0  0  0
   -4.5597   -1.4815    0.0000 C   0  0  0  0  0  0  0  0  0  0  0  0
   -4.7943    0.0000    0.0000 C   0  0  0  0  0  0  0  0  0  0  0  0
   -4.5597    1.4815    0.0000 C   0  0  0  0  0  0  0  0  0  0  0  0
   -3.8787    2.8180    0.0000 C   0  0  0  0  0  0  0  0  0  0  0  0
   -2.8180    3.8787    0.0000 C   0  0  0  0  0  0  0  0  0  0  0  0
   -1.4815    4.5597    0.0000 C   0  0  0  0  0  0  0  0  0  0  0  0
    0.0000    4.7943    0.0000 C   0  0  0  0  0  0  0  0  0  0  0  0
    1.4815    4.5597    0.0000 C   0  0  0  0  0  0  0  0  0  0  0  0
    2.8180    3.8787    0.0000 C   0  0  0  0  0  0  0  0  0  0  0  0
    3.8787    2.8180    0.0000 C   0  0  0  0  0  0  0  0  0  0  0  0
    4.5597    1.4815    0.0000 N   0  0  0  0  0  0  0  0  0  0  0  0
  1  2  1  0
  2  3  2  0
  3  4  1  0
  4  5  2  0
  5  6  1  0
  6  7  2  0
  7  8  1  0
  8  9  2  0
  9 10  1  0
 10 11  2  0
 11 12  1  0
 12 13  2  0
 13 14  1  0
 14 15  2  0
 15 16  1  0
 16 17  2  0
 17 18  1  0
 18 19  2  0
 19 20  1  0
 20 21  1  0
 21  2  1  0
M  END
>  <Title>  (1449) 
idACDSgen8

$$$$

     RDKit          2D

  7  7  0  0  0  0  0  0  0  0999 V2000
    3.0000    0.0000    0.0000 O   0  0  0  0  0  0  0  0  0  0  0  0
    1.5000    0.0000    0.0000 C   0  0  0  0  0  0  0  0  0  0  0  0
    0.7500   -1.2990    0.0000 C   0  0  0  0  0  0  0  0  0  0  0  0
   -0.7500   -1.2990    0.0000 C   0  0  0  0  0  0  0  0  0  0  0  0
   -1.5000    0.0000    0.0000 C   0  0  0  0  0  0  0  0  0  0  0  0
   -0.7500    1.2990    0.0000 N   0  0  0  0  0  0  0  0  0  0  0  0
    0.7500    1.2990    0.0000 C   0  0  0  0  0  0  0  0  0  0  0  0
  1  2  1  0
  2  3  2  0
  3  4  1  0
  4  5  2  0
  5  6  2  0
  6  7  1  0
  7  2  1  0
M  END
>  <Title>  (1450) 
idACDTgen8

$$$$

     RDKit          2D

 31 35  0  0  0  0  0  0  0  0999 V2000
    3.7500    1.2990    0.0000 C   0  0  0  0  0  0  0  0  0  0  0  0
    3.0000    0.0000    0.0000 O   0  0  0  0  0  0  0  0  0  0  0  0
    1.5000    0.0000    0.0000 C   0  0  0  0  0  0  0  0  0  0  0  0
    0.7500    1.2990    0.0000 C   0  0  0  0  0  0  0  0  0  0  0  0
   -0.7500    1.2990    0.0000 C   0  0  0  0  0  0  0  0  0  0  0  0
   -1.5000    0.0000    0.0000 C   0  0  0  0  0  0  0  0  0  0  0  0
   -3.0000    0.0000    0.0000 C   0  0  0  0  0  0  0  0  0  0  0  0
   -3.8817   -1.2135    0.0000 N   0  0  0  0  0  0  0  0  0  0  0  0
   -5.3083   -0.7500    0.0000 N   0  0  0  0  0  0  0  0  0  0  0  0
   -5.3083    0.7500    0.0000 N   0  0  0  0  0  0  0  0  0  0  0  0
   -3.8817    1.2135    0.0000 N   0  0  0  0  0  0  0  0  0  0  0  0
   -3.4182    2.6401    0.0000 C   0  0  0  0  0  0  0  0  0  0  0  0
   -4.2998    3.8536    0.0000 C   0  0  0  0  0  0  0  0  0  0  0  0
   -3.4182    5.0672    0.0000 C   0  0  0  0  0  0  0  0  0  0  0  0
   -1.9916    4.6036    0.0000 C   0  0  0  0  0  0  0  0  0  0  0  0
   -0.7780    5.4853    0.0000 C   0  0  0  0  0  0  0  0  0  0  0  0
    0.6485    5.0218    0.0000 N   0  0  0  0  0  0  0  0  0  0  0  0
    1.5302    6.2353    0.0000 N   0  0  0  0  0  0  0  0  0  0  0  0
    0.6485    7.4488    0.0000 N   0  0  0  0  0  0  0  0  0  0  0  0
   -0.7780    6.9853    0.0000 N   0  0  0  0  0  0  0  0  0  0  0  0
   -1.9916    7.8670    0.0000 C   0  0  0  0  0  0  0  0  0  0  0  0
   -3.3619    7.2569    0.0000 C   0  0  0  0  0  0  0  0  0  0  0  0
   -4.5754    8.1386    0.0000 C   0  0  0  0  0  0  0  0  0  0  0  0
   -4.4186    9.6303    0.0000 C   0  0  0  0  0  0  0  0  0  0  0  0
   -3.0483   10.2405    0.0000 C   0  0  0  0  0  0  0  0  0  0  0  0
   -1.8348    9.3588    0.0000 C   0  0  0  0  0  0  0  0  0  0  0  0
   -1.9916    3.1036    0.0000 C   0  0  0  0  0  0  0  0  0  0  0  0
   -0.7780    2.2220    0.0000 O   0  0  0  0  0  0  0  0  0  0  0  0
   -0.7500   -1.2990    0.0000 N   0  0  0  0  0  0  0  0  0  0  0  0
    0.7500   -1.2990    0.0000 C   0  0  0  0  0  0  0  0  0  0  0  0
    1.5000   -2.5981    0.0000 O   0  0  0  0  0  0  0  0  0  0  0  0
  1  2  1  0
  2  3  1  0
  3  4  2  0
  4  5  1  0
  5  6  2  0
  6  7  1  0
  7  8  2  0
  8  9  1  0
  9 10  2  0
 10 11  1  0
 11 12  1  0
 12 13  2  0
 13 14  1  0
 14 15  2  0
 15 16  1  0
 16 17  2  0
 17 18  1  0
 18 19  2  0
 19 20  1  0
 20 21  1  0
 21 22  2  0
 22 23  1  0
 23 24  2  0
 24 25  1  0
 25 26  2  0
 15 27  1  0
 27 28  2  0
  6 29  1  0
 29 30  1  0
 30 31  2  0
 30  3  1  0
 11  7  1  0
 27 12  1  0
 20 16  1  0
 26 21  1  0
M  END
>  <Title>  (1451) 
idACDUgen8

$$$$

     RDKit          2D

 36 41  0  0  0  0  0  0  0  0999 V2000
    3.0000    0.0000    0.0000 C   0  0  0  0  0  0  0  0  0  0  0  0
    1.5000    0.0000    0.0000 C   0  0  0  0  0  0  0  0  0  0  0  0
    0.7500    1.2990    0.0000 C   0  0  0  0  0  0  0  0  0  0  0  0
   -0.7500    1.2990    0.0000 C   0  0  0  0  0  0  0  0  0  0  0  0
   -1.5000    0.0000    0.0000 C   0  0  0  0  0  0  0  0  0  0  0  0
   -3.0000    0.0000    0.0000 C   0  0  0  0  0  0  0  0  0  0  0  0
   -3.8817   -1.2135    0.0000 N   0  0  0  0  0  0  0  0  0  0  0  0
   -5.3083   -0.7500    0.0000 N   0  0  0  0  0  0  0  0  0  0  0  0
   -5.3083    0.7500    0.0000 N   0  0  0  0  0  0  0  0  0  0  0  0
   -3.8817    1.2135    0.0000 N   0  0  0  0  0  0  0  0  0  0  0  0
   -3.4182    2.6401    0.0000 C   0  0  0  0  0  0  0  0  0  0  0  0
   -4.2998    3.8536    0.0000 C   0  0  0  0  0  0  0  0  0  0  0  0
   -3.4182    5.0672    0.0000 C   0  0  0  0  0  0  0  0  0  0  0  0
   -1.9916    4.6036    0.0000 C   0  0  0  0  0  0  0  0  0  0  0  0
   -0.7780    5.4853    0.0000 C   0  0  0  0  0  0  0  0  0  0  0  0
   -0.9348    6.9771    0.0000 C   0  0  0  0  0  0  0  0  0  0  0  0
   -2.2339    7.7271    0.0000 N   0  0  0  0  0  0  0  0  0  0  0  0
   -1.9220    9.1943    0.0000 N   0  0  0  0  0  0  0  0  0  0  0  0
   -0.4302    9.3511    0.0000 N   0  0  0  0  0  0  0  0  0  0  0  0
    0.1799    7.9808    0.0000 N   0  0  0  0  0  0  0  0  0  0  0  0
    1.6471    7.6689    0.0000 C   0  0  0  0  0  0  0  0  0  0  0  0
    2.7618    8.6726    0.0000 N   0  0  0  0  0  0  0  0  0  0  0  0
    4.0609    7.9226    0.0000 N   0  0  0  0  0  0  0  0  0  0  0  0
    3.7490    6.4554    0.0000 N   0  0  0  0  0  0  0  0  0  0  0  0
    2.2572    6.2986    0.0000 N   0  0  0  0  0  0  0  0  0  0  0  0
    1.5072    4.9996    0.0000 C   0  0  0  0  0  0  0  0  0  0  0  0
    0.0072    4.9996    0.0000 C   0  0  0  0  0  0  0  0  0  0  0  0
   -0.7428    3.7005    0.0000 C   0  0  0  0  0  0  0  0  0  0  0  0
    0.0072    2.4015    0.0000 C   0  0  0  0  0  0  0  0  0  0  0  0
    1.5072    2.4015    0.0000 C   0  0  0  0  0  0  0  0  0  0  0  0
    2.2572    3.7005    0.0000 C   0  0  0  0  0  0  0  0  0  0  0  0
   -1.9916    3.1036    0.0000 C   0  0  0  0  0  0  0  0  0  0  0  0
   -0.7780    2.2220    0.0000 N   0  0  0  0  0  0  0  0  0  0  0  0
   -0.7500   -1.2990    0.0000 C   0  0  0  0  0  0  0  0  0  0  0  0
   -1.5000   -2.5981    0.0000 O   0  0  0  0  0  0  0  0  0  0  0  0
    0.7500   -1.2990    0.0000 N   0  0  0  0  0  0  0  0  0  0  0  0
  1  2  1  0
  2  3  2  0
  3  4  1  0
  4  5  2  0
  5  6  1  0
  6  7  2  0
  7  8  1  0
  8  9  2  0
  9 10  1  0
 10 11  1  0
 11 12  2  0
 12 13  1  0
 13 14  2  0
 14 15  1  0
 15 16  1  0
 16 17  2  0
 17 18  1  0
 18 19  2  0
 19 20  1  0
 20 21  1  0
 21 22  2  0
 22 23  1  0
 23 24  2  0
 24 25  1  0
 25 26  1  0
 26 27  2  0
 27 28  1  0
 28 29  2  0
 29 30  1  0
 30 31  2  0
 14 32  1  0
 32 33  2  0
  5 34  1  0
 34 35  2  0
 34 36  1  0
 36  2  1  0
 10  6  1  0
 32 11  1  0
 20 16  1  0
 25 21  1  0
 31 26  1  0
M  END
>  <Title>  (1452) 
idACDVgen8

$$$$

     RDKit          2D

 29 33  0  0  0  0  0  0  0  0999 V2000
    3.0000    0.0000    0.0000 C   0  0  0  0  0  0  0  0  0  0  0  0
    1.5000    0.0000    0.0000 C   0  0  0  0  0  0  0  0  0  0  0  0
    0.7500    1.2990    0.0000 C   0  0  0  0  0  0  0  0  0  0  0  0
   -0.7500    1.2990    0.0000 C   0  0  0  0  0  0  0  0  0  0  0  0
   -1.5000    0.0000    0.0000 C   0  0  0  0  0  0  0  0  0  0  0  0
   -3.0000    0.0000    0.0000 C   0  0  0  0  0  0  0  0  0  0  0  0
   -3.8817   -1.2135    0.0000 N   0  0  0  0  0  0  0  0  0  0  0  0
   -5.3083   -0.7500    0.0000 N   0  0  0  0  0  0  0  0  0  0  0  0
   -5.3083    0.7500    0.0000 N   0  0  0  0  0  0  0  0  0  0  0  0
   -3.8817    1.2135    0.0000 N   0  0  0  0  0  0  0  0  0  0  0  0
   -3.4182    2.6401    0.0000 C   0  0  0  0  0  0  0  0  0  0  0  0
   -4.2998    3.8536    0.0000 C   0  0  0  0  0  0  0  0  0  0  0  0
   -3.4182    5.0672    0.0000 C   0  0  0  0  0  0  0  0  0  0  0  0
   -1.9916    4.6036    0.0000 C   0  0  0  0  0  0  0  0  0  0  0  0
   -0.7780    5.4853    0.0000 C   0  0  0  0  0  0  0  0  0  0  0  0
    0.6485    5.0218    0.0000 N   0  0  0  0  0  0  0  0  0  0  0  0
    1.5302    6.2353    0.0000 N   0  0  0  0  0  0  0  0  0  0  0  0
    0.6485    7.4488    0.0000 N   0  0  0  0  0  0  0  0  0  0  0  0
   -0.7780    6.9853    0.0000 N   0  0  0  0  0  0  0  0  0  0  0  0
   -1.9916    7.8670    0.0000 C   0  0  0  0  0  0  0  0  0  0  0  0
   -3.3619    7.2569    0.0000 C   0  0  0  0  0  0  0  0  0  0  0  0
   -4.5754    8.1386    0.0000 C   0  0  0  0  0  0  0  0  0  0  0  0
   -4.4186    9.6303    0.0000 C   0  0  0  0  0  0  0  0  0  0  0  0
   -3.0483   10.2405    0.0000 C   0  0  0  0  0  0  0  0  0  0  0  0
   -1.8348    9.3588    0.0000 C   0  0  0  0  0  0  0  0  0  0  0  0
   -1.9916    3.1036    0.0000 C   0  0  0  0  0  0  0  0  0  0  0  0
   -0.7780    2.2220    0.0000 O   0  0  0  0  0  0  0  0  0  0  0  0
   -0.7500   -1.2990    0.0000 C   0  0  0  0  0  0  0  0  0  0  0  0
    0.7500   -1.2990    0.0000 C   0  0  0  0  0  0  0  0  0  0  0  0
  1  2  1  0
  2  3  2  0
  3  4  1  0
  4  5  2  0
  5  6  1  0
  6  7  2  0
  7  8  1  0
  8  9  2  0
  9 10  1  0
 10 11  1  0
 11 12  2  0
 12 13  1  0
 13 14  2  0
 14 15  1  0
 15 16  2  0
 16 17  1  0
 17 18  2  0
 18 19  1  0
 19 20  1  0
 20 21  2  0
 21 22  1  0
 22 23  2  0
 23 24  1  0
 24 25  2  0
 14 26  1  0
 26 27  2  0
  5 28  1  0
 28 29  2  0
 29  2  1  0
 10  6  1  0
 26 11  1  0
 19 15  1  0
 25 20  1  0
M  END
>  <Title>  (1453) 
idACDWgen8

$$$$

     RDKit          2D

 23 25  0  0  0  0  0  0  0  0999 V2000
    3.0000    0.0000    0.0000 C   0  0  0  0  0  0  0  0  0  0  0  0
    1.5000    0.0000    0.0000 C   0  0  0  0  0  0  0  0  0  0  0  0
    0.7500   -1.2990    0.0000 C   0  0  0  0  0  0  0  0  0  0  0  0
   -0.7500   -1.2990    0.0000 C   0  0  0  0  0  0  0  0  0  0  0  0
   -1.5000    0.0000    0.0000 C   0  0  0  0  0  0  0  0  0  0  0  0
   -3.0000    0.0000    0.0000 C   0  0  0  0  0  0  0  0  0  0  0  0
   -3.8817   -1.2135    0.0000 N   0  0  0  0  0  0  0  0  0  0  0  0
   -5.3083   -0.7500    0.0000 N   0  0  0  0  0  0  0  0  0  0  0  0
   -5.3083    0.7500    0.0000 N   0  0  0  0  0  0  0  0  0  0  0  0
   -3.8817    1.2135    0.0000 N   0  0  0  0  0  0  0  0  0  0  0  0
   -3.4182    2.6401    0.0000 C   0  0  0  0  0  0  0  0  0  0  0  0
   -1.9509    2.9520    0.0000 C   0  0  0  0  0  0  0  0  0  0  0  0
   -1.4874    4.3786    0.0000 C   0  0  0  0  0  0  0  0  0  0  0  0
   -2.4911    5.4933    0.0000 C   0  0  0  0  0  0  0  0  0  0  0  0
   -2.0276    6.9199    0.0000 C   0  0  0  0  0  0  0  0  0  0  0  0
   -3.0313    8.0346    0.0000 O   0  0  0  0  0  0  0  0  0  0  0  0
   -0.5604    7.2317    0.0000 N   0  0  0  0  0  0  0  0  0  0  0  0
   -0.0968    8.6583    0.0000 O   0  0  0  0  0  0  0  0  0  0  0  0
   -3.9583    5.1814    0.0000 N   0  0  0  0  0  0  0  0  0  0  0  0
   -4.4218    3.7548    0.0000 C   0  0  0  0  0  0  0  0  0  0  0  0
   -5.8891    3.4430    0.0000 O   0  0  0  0  0  0  0  0  0  0  0  0
   -0.7500    1.2990    0.0000 C   0  0  0  0  0  0  0  0  0  0  0  0
    0.7500    1.2990    0.0000 C   0  0  0  0  0  0  0  0  0  0  0  0
  1  2  1  0
  2  3  2  0
  3  4  1  0
  4  5  2  0
  5  6  1  0
  6  7  2  0
  7  8  1  0
  8  9  2  0
  9 10  1  0
 10 11  1  0
 11 12  2  0
 12 13  1  0
 13 14  2  0
 14 15  1  0
 15 16  2  0
 15 17  1  0
 17 18  1  0
 14 19  1  0
 19 20  1  0
 20 21  2  0
  5 22  1  0
 22 23  2  0
 23  2  1  0
 10  6  1  0
 20 11  1  0
M  END
>  <Title>  (1454) 
idACDXgen8

$$$$

     RDKit          2D

 43 48  0  0  0  0  0  0  0  0999 V2000
  -11.3597   -1.0932    0.0000 C   0  0  0  0  0  0  0  0  0  0  0  0
   -9.8765   -0.8697    0.0000 C   0  0  0  0  0  0  0  0  0  0  0  0
   -9.4344    0.5637    0.0000 C   0  0  0  0  0  0  0  0  0  0  0  0
   -8.0381    1.1117    0.0000 C   0  0  0  0  0  0  0  0  0  0  0  0
   -6.7390    0.3617    0.0000 C   0  0  0  0  0  0  0  0  0  0  0  0
   -5.4997    1.2067    0.0000 C   0  0  0  0  0  0  0  0  0  0  0  0
   -5.6118    2.7025    0.0000 C   0  0  0  0  0  0  0  0  0  0  0  0
   -4.3724    3.5475    0.0000 N   0  0  0  0  0  0  0  0  0  0  0  0
   -3.0209    2.8966    0.0000 N   0  0  0  0  0  0  0  0  0  0  0  0
   -2.9088    1.4008    0.0000 N   0  0  0  0  0  0  0  0  0  0  0  0
   -4.1482    0.5558    0.0000 N   0  0  0  0  0  0  0  0  0  0  0  0
   -4.0361   -0.9400    0.0000 C   0  0  0  0  0  0  0  0  0  0  0  0
   -5.2755   -1.7849    0.0000 C   0  0  0  0  0  0  0  0  0  0  0  0
   -5.1634   -3.2807    0.0000 C   0  0  0  0  0  0  0  0  0  0  0  0
   -3.8119   -3.9316    0.0000 C   0  0  0  0  0  0  0  0  0  0  0  0
   -3.6998   -5.4274    0.0000 C   0  0  0  0  0  0  0  0  0  0  0  0
   -2.4238   -6.2159    0.0000 N   0  0  0  0  0  0  0  0  0  0  0  0
   -2.7794   -7.6731    0.0000 N   0  0  0  0  0  0  0  0  0  0  0  0
   -4.2752   -7.7852    0.0000 N   0  0  0  0  0  0  0  0  0  0  0  0
   -4.8441   -6.3973    0.0000 N   0  0  0  0  0  0  0  0  0  0  0  0
   -6.3013   -6.0417    0.0000 C   0  0  0  0  0  0  0  0  0  0  0  0
   -6.7219   -4.6018    0.0000 C   0  0  0  0  0  0  0  0  0  0  0  0
   -8.1792   -4.2462    0.0000 C   0  0  0  0  0  0  0  0  0  0  0  0
   -9.2158   -5.3304    0.0000 C   0  0  0  0  0  0  0  0  0  0  0  0
  -10.6730   -4.9748    0.0000 C   0  0  0  0  0  0  0  0  0  0  0  0
  -11.7096   -6.0590    0.0000 O   0  0  0  0  0  0  0  0  0  0  0  0
  -11.0936   -3.5350    0.0000 N   0  0  0  0  0  0  0  0  0  0  0  0
  -12.5509   -3.1794    0.0000 O   0  0  0  0  0  0  0  0  0  0  0  0
   -8.7951   -6.7702    0.0000 C   0  0  0  0  0  0  0  0  0  0  0  0
   -7.3379   -7.1258    0.0000 C   0  0  0  0  0  0  0  0  0  0  0  0
   -2.5726   -3.0866    0.0000 C   0  0  0  0  0  0  0  0  0  0  0  0
   -2.6847   -1.5908    0.0000 C   0  0  0  0  0  0  0  0  0  0  0  0
   -1.4453   -0.7458    0.0000 C   0  0  0  0  0  0  0  0  0  0  0  0
   -1.4004    0.7535    0.0000 C   0  0  0  0  0  0  0  0  0  0  0  0
    0.0394    1.1742    0.0000 C   0  0  0  0  0  0  0  0  0  0  0  0
    0.8844   -0.0652    0.0000 C   0  0  0  0  0  0  0  0  0  0  0  0
    2.3837   -0.1101    0.0000 C   0  0  0  0  0  0  0  0  0  0  0  0
   -0.0332   -1.2518    0.0000 C   0  0  0  0  0  0  0  0  0  0  0  0
    0.3874   -2.6916    0.0000 O   0  0  0  0  0  0  0  0  0  0  0  0
   -6.5155   -1.1216    0.0000 N   0  0  0  0  0  0  0  0  0  0  0  0
   -7.5357   -2.2211    0.0000 C   0  0  0  0  0  0  0  0  0  0  0  0
   -6.9877   -3.6174    0.0000 O   0  0  0  0  0  0  0  0  0  0  0  0
   -9.0315   -2.1090    0.0000 N   0  0  0  0  0  0  0  0  0  0  0  0
  1  2  1  0
  2  3  2  0
  3  4  1  0
  4  5  2  0
  5  6  1  0
  6  7  1  0
  7  8  1  0
  8  9  1  0
  9 10  2  0
 10 11  1  0
 11 12  1  0
 12 13  2  0
 13 14  1  0
 14 15  2  0
 15 16  1  0
 16 17  2  0
 17 18  1  0
 18 19  2  0
 19 20  1  0
 20 21  1  0
 21 22  2  0
 22 23  1  0
 23 24  2  0
 24 25  1  0
 25 26  2  0
 25 27  1  0
 27 28  1  0
 24 29  1  0
 29 30  1  0
 15 31  1  0
 31 32  2  0
 32 33  1  0
 33 34  2  0
 34 35  1  0
 35 36  2  0
 36 37  1  0
 36 38  1  0
 38 39  2  0
  5 40  1  0
 40 41  1  0
 41 42  2  0
 41 43  1  0
 43  2  1  0
 11  6  1  0
 32 12  1  0
 38 33  1  0
 20 16  1  0
 30 21  1  0
M  END
>  <Title>  (1455) 
idACDYgen8

$$$$

     RDKit          2D

  9  9  0  0  0  0  0  0  0  0999 V2000
    3.4598   -0.0000    0.0000 O   0  0  0  0  0  0  0  0  0  0  0  0
    1.9598    0.0000    0.0000 C   0  0  0  0  0  0  0  0  0  0  0  0
    1.3858   -1.3858    0.0000 C   0  0  0  0  0  0  0  0  0  0  0  0
   -0.0000   -1.9598    0.0000 C   0  0  0  0  0  0  0  0  0  0  0  0
   -1.3858   -1.3858    0.0000 C   0  0  0  0  0  0  0  0  0  0  0  0
   -1.9598    0.0000    0.0000 C   0  0  0  0  0  0  0  0  0  0  0  0
   -1.3858    1.3858    0.0000 C   0  0  0  0  0  0  0  0  0  0  0  0
    0.0000    1.9598    0.0000 C   0  0  0  0  0  0  0  0  0  0  0  0
    1.3858    1.3858    0.0000 C   0  0  0  0  0  0  0  0  0  0  0  0
  1  2  1  0
  2  3  2  0
  3  4  1  0
  4  5  2  0
  5  6  1  0
  6  7  1  0
  7  8  2  0
  8  9  1  0
  9  2  1  0
M  END
>  <Title>  (1456) 
idACDZgen8

$$$$

     RDKit          2D

 47 53  0  0  0  0  0  0  0  0999 V2000
    3.0000    0.0000    0.0000 C   0  0  0  0  0  0  0  0  0  0  0  0
    1.5000    0.0000    0.0000 C   0  0  0  0  0  0  0  0  0  0  0  0
    0.7500   -1.2990    0.0000 C   0  0  0  0  0  0  0  0  0  0  0  0
   -0.7500   -1.2990    0.0000 C   0  0  0  0  0  0  0  0  0  0  0  0
   -1.5000    0.0000    0.0000 C   0  0  0  0  0  0  0  0  0  0  0  0
   -3.0000    0.0000    0.0000 C   0  0  0  0  0  0  0  0  0  0  0  0
   -3.7500   -1.2990    0.0000 O   0  0  0  0  0  0  0  0  0  0  0  0
   -3.7500    1.2990    0.0000 N   0  0  0  0  0  0  0  0  0  0  0  0
   -5.2500    1.2990    0.0000 C   0  0  0  0  0  0  0  0  0  0  0  0
   -6.1317    0.0855    0.0000 N   0  0  0  0  0  0  0  0  0  0  0  0
   -7.5583    0.5490    0.0000 N   0  0  0  0  0  0  0  0  0  0  0  0
   -7.5583    2.0490    0.0000 N   0  0  0  0  0  0  0  0  0  0  0  0
   -6.1317    2.5126    0.0000 N   0  0  0  0  0  0  0  0  0  0  0  0
   -5.6682    3.9391    0.0000 C   0  0  0  0  0  0  0  0  0  0  0  0
   -4.2009    4.2510    0.0000 C   0  0  0  0  0  0  0  0  0  0  0  0
   -3.7374    5.6776    0.0000 C   0  0  0  0  0  0  0  0  0  0  0  0
   -4.7411    6.7923    0.0000 C   0  0  0  0  0  0  0  0  0  0  0  0
   -4.2776    8.2189    0.0000 C   0  0  0  0  0  0  0  0  0  0  0  0
   -5.2813    9.3336    0.0000 O   0  0  0  0  0  0  0  0  0  0  0  0
   -2.8104    8.5308    0.0000 N   0  0  0  0  0  0  0  0  0  0  0  0
   -2.3468    9.9574    0.0000 C   0  0  0  0  0  0  0  0  0  0  0  0
   -3.2285   11.1709    0.0000 N   0  0  0  0  0  0  0  0  0  0  0  0
   -2.3468   12.3844    0.0000 N   0  0  0  0  0  0  0  0  0  0  0  0
   -0.9202   11.9209    0.0000 N   0  0  0  0  0  0  0  0  0  0  0  0
   -0.9202   10.4209    0.0000 N   0  0  0  0  0  0  0  0  0  0  0  0
    0.2933    9.5392    0.0000 C   0  0  0  0  0  0  0  0  0  0  0  0
    0.1365    8.0474    0.0000 C   0  0  0  0  0  0  0  0  0  0  0  0
    1.3500    7.1657    0.0000 C   0  0  0  0  0  0  0  0  0  0  0  0
    2.7203    7.7758    0.0000 C   0  0  0  0  0  0  0  0  0  0  0  0
    3.9339    6.8942    0.0000 C   0  0  0  0  0  0  0  0  0  0  0  0
    3.7771    5.4024    0.0000 C   0  0  0  0  0  0  0  0  0  0  0  0
    4.9906    4.5207    0.0000 N   0  0  0  0  0  0  0  0  0  0  0  0
    6.3609    5.1308    0.0000 N   0  0  0  0  0  0  0  0  0  0  0  0
    6.5177    6.6226    0.0000 N   0  0  0  0  0  0  0  0  0  0  0  0
    5.3042    7.5043    0.0000 N   0  0  0  0  0  0  0  0  0  0  0  0
    2.8771    9.2676    0.0000 C   0  0  0  0  0  0  0  0  0  0  0  0
    1.6636   10.1493    0.0000 C   0  0  0  0  0  0  0  0  0  0  0  0
    1.8204   11.6411    0.0000 C   0  0  0  0  0  0  0  0  0  0  0  0
    3.1907   12.2512    0.0000 C   0  0  0  0  0  0  0  0  0  0  0  0
    3.3475   13.7430    0.0000 C   0  0  0  0  0  0  0  0  0  0  0  0
    2.1340   14.6247    0.0000 C   0  0  0  0  0  0  0  0  0  0  0  0
    0.7637   14.0146    0.0000 C   0  0  0  0  0  0  0  0  0  0  0  0
    0.6069   12.5228    0.0000 C   0  0  0  0  0  0  0  0  0  0  0  0
   -6.2083    6.4805    0.0000 C   0  0  0  0  0  0  0  0  0  0  0  0
   -6.6718    5.0539    0.0000 C   0  0  0  0  0  0  0  0  0  0  0  0
   -0.7500    1.2990    0.0000 C   0  0  0  0  0  0  0  0  0  0  0  0
    0.7500    1.2990    0.0000 C   0  0  0  0  0  0  0  0  0  0  0  0
  1  2  1  0
  2  3  2  0
  3  4  1  0
  4  5  2  0
  5  6  1  0
  6  7  2  0
  6  8  1  0
  8  9  1  0
  9 10  2  0
 10 11  1  0
 11 12  2  0
 12 13  1  0
 13 14  1  0
 14 15  2  0
 15 16  1  0
 16 17  2  0
 17 18  1  0
 18 19  2  0
 18 20  1  0
 20 21  1  0
 21 22  2  0
 22 23  1  0
 23 24  2  0
 24 25  1  0
 25 26  1  0
 26 27  2  0
 27 28  1  0
 28 29  2  0
 29 30  1  0
 30 31  2  0
 31 32  1  0
 32 33  2  0
 33 34  1  0
 34 35  2  0
 29 36  1  0
 36 37  2  0
 37 38  1  0
 38 39  2  0
 39 40  1  0
 40 41  2  0
 41 42  1  0
 42 43  2  0
 17 44  1  0
 44 45  2  0
  5 46  1  0
 46 47  2  0
 47  2  1  0
 13  9  1  0
 45 14  1  0
 25 21  1  0
 37 26  1  0
 43 38  1  0
 35 30  1  0
M  END
>  <Title>  (1457) 
idACEAgen8

$$$$

     RDKit          2D

 55 62  0  0  0  0  0  0  0  0999 V2000
    6.2682    2.2048    0.0000 C   0  0  0  0  0  0  0  0  0  0  0  0
    5.8261    3.6381    0.0000 O   0  0  0  0  0  0  0  0  0  0  0  0
    4.3637    3.9719    0.0000 C   0  0  0  0  0  0  0  0  0  0  0  0
    3.7129    2.6205    0.0000 C   0  0  0  0  0  0  0  0  0  0  0  0
    2.5401    1.6852    0.0000 C   0  0  0  0  0  0  0  0  0  0  0  0
    1.0777    1.3515    0.0000 C   0  0  0  0  0  0  0  0  0  0  0  0
    1.7286    0.0000    0.0000 C   0  0  0  0  0  0  0  0  0  0  0  0
    1.0777   -1.3515    0.0000 C   0  0  0  0  0  0  0  0  0  0  0  0
   -0.3846   -1.6852    0.0000 N   0  0  0  0  0  0  0  0  0  0  0  0
   -1.5574   -0.7500    0.0000 N   0  0  0  0  0  0  0  0  0  0  0  0
   -1.5574    0.7500    0.0000 N   0  0  0  0  0  0  0  0  0  0  0  0
   -0.3846    1.6852    0.0000 N   0  0  0  0  0  0  0  0  0  0  0  0
   -1.5574    2.6205    0.0000 C   0  0  0  0  0  0  0  0  0  0  0  0
   -2.2082    1.2690    0.0000 C   0  0  0  0  0  0  0  0  0  0  0  0
   -3.6706    0.9352    0.0000 C   0  0  0  0  0  0  0  0  0  0  0  0
   -4.8434    1.8705    0.0000 C   0  0  0  0  0  0  0  0  0  0  0  0
   -4.8434    3.3705    0.0000 C   0  0  0  0  0  0  0  0  0  0  0  0
   -6.1948    4.0213    0.0000 C   0  0  0  0  0  0  0  0  0  0  0  0
   -6.3069    5.5171    0.0000 O   0  0  0  0  0  0  0  0  0  0  0  0
   -7.4342    3.1763    0.0000 N   0  0  0  0  0  0  0  0  0  0  0  0
   -8.7856    3.8271    0.0000 C   0  0  0  0  0  0  0  0  0  0  0  0
   -9.0535    5.3030    0.0000 N   0  0  0  0  0  0  0  0  0  0  0  0
  -10.5399    5.5044    0.0000 N   0  0  0  0  0  0  0  0  0  0  0  0
  -11.1907    4.1529    0.0000 N   0  0  0  0  0  0  0  0  0  0  0  0
  -10.1065    3.1163    0.0000 N   0  0  0  0  0  0  0  0  0  0  0  0
  -10.3079    1.6299    0.0000 C   0  0  0  0  0  0  0  0  0  0  0  0
   -9.1213    0.7123    0.0000 C   0  0  0  0  0  0  0  0  0  0  0  0
   -9.3226   -0.7741    0.0000 C   0  0  0  0  0  0  0  0  0  0  0  0
  -10.7106   -1.3429    0.0000 C   0  0  0  0  0  0  0  0  0  0  0  0
  -11.8972   -0.4253    0.0000 C   0  0  0  0  0  0  0  0  0  0  0  0
  -11.6958    1.0611    0.0000 C   0  0  0  0  0  0  0  0  0  0  0  0
   -3.6706    4.3057    0.0000 C   0  0  0  0  0  0  0  0  0  0  0  0
   -2.2082    3.9719    0.0000 C   0  0  0  0  0  0  0  0  0  0  0  0
   -2.2082    5.4719    0.0000 N   0  0  0  0  0  0  0  0  0  0  0  0
   -3.7040    5.3598    0.0000 N   0  0  0  0  0  0  0  0  0  0  0  0
   -4.5490    6.5992    0.0000 N   0  0  0  0  0  0  0  0  0  0  0  0
   -3.8982    7.9506    0.0000 N   0  0  0  0  0  0  0  0  0  0  0  0
   -2.4024    8.0627    0.0000 N   0  0  0  0  0  0  0  0  0  0  0  0
   -1.5574    6.8234    0.0000 N   0  0  0  0  0  0  0  0  0  0  0  0
   -0.3846    7.7586    0.0000 C   0  0  0  0  0  0  0  0  0  0  0  0
    1.0777    8.0924    0.0000 C   0  0  0  0  0  0  0  0  0  0  0  0
    2.5401    7.7586    0.0000 C   0  0  0  0  0  0  0  0  0  0  0  0
    3.7129    6.8234    0.0000 C   0  0  0  0  0  0  0  0  0  0  0  0
    4.3637    5.4719    0.0000 N   0  0  0  0  0  0  0  0  0  0  0  0
    4.2133    8.1724    0.0000 C   0  0  0  0  0  0  0  0  0  0  0  0
    4.0788    9.6664    0.0000 C   0  0  0  0  0  0  0  0  0  0  0  0
    3.0919   10.7960    0.0000 C   0  0  0  0  0  0  0  0  0  0  0  0
    1.6295   11.1298    0.0000 C   0  0  0  0  0  0  0  0  0  0  0  0
    0.2502   10.5402    0.0000 N   0  0  0  0  0  0  0  0  0  0  0  0
   -0.5191    9.2526    0.0000 C   0  0  0  0  0  0  0  0  0  0  0  0
   -1.9815    9.5864    0.0000 N   0  0  0  0  0  0  0  0  0  0  0  0
   -2.4236   11.0197    0.0000 O   0  0  0  0  0  0  0  0  0  0  0  0
    2.4077    9.9109    0.0000 C   0  0  0  0  0  0  0  0  0  0  0  0
    0.3847    9.0463    0.0000 O   0  0  0  0  0  0  0  0  0  0  0  0
    3.1099    9.1071    0.0000 N   0  0  0  0  0  0  0  0  0  0  0  0
  1  2  1  0
  2  3  1  0
  3  4  2  0
  4  5  1  0
  5  6  2  0
  6  7  1  0
  7  8  1  0
  8  9  2  0
  9 10  1  0
 10 11  2  0
 11 12  1  0
 12 13  1  0
 13 14  2  0
 14 15  1  0
 15 16  2  0
 16 17  1  0
 17 18  1  0
 18 19  2  0
 18 20  1  0
 20 21  1  0
 21 22  2  0
 22 23  1  0
 23 24  2  0
 24 25  1  0
 25 26  1  0
 26 27  2  0
 27 28  1  0
 28 29  2  0
 29 30  1  0
 30 31  2  0
 17 32  1  0
 32 33  2  0
 33 34  1  0
 34 35  1  0
 35 36  2  0
 36 37  1  0
 37 38  2  0
 38 39  1  0
 39 40  1  0
 40 41  2  0
 41 42  1  0
 42 43  2  0
 43 44  1  0
 43 45  1  0
 45 46  2  0
 46 47  1  0
 47 48  2  0
 48 49  1  0
 49 50  1  0
 50 51  2  3
 51 52  1  0
 48 53  1  0
 53 54  2  0
 53 55  1  0
 44  3  1  0
 55 45  1  0
 12  6  1  0
 33 13  1  0
 39 34  1  0
 50 40  1  0
 25 21  1  0
 31 26  1  0
M  END
>  <Title>  (1458) 
idACEBgen8

$$$$

     RDKit          2D

 29 32  0  0  0  0  0  0  0  0999 V2000
  -12.5531   -4.7795    0.0000 C   0  0  0  0  0  0  0  0  0  0  0  0
  -11.0613   -4.6227    0.0000 O   0  0  0  0  0  0  0  0  0  0  0  0
  -10.4512   -3.2524    0.0000 C   0  0  0  0  0  0  0  0  0  0  0  0
  -11.3328   -2.0389    0.0000 O   0  0  0  0  0  0  0  0  0  0  0  0
   -8.9594   -3.0956    0.0000 N   0  0  0  0  0  0  0  0  0  0  0  0
   -8.3493   -1.7253    0.0000 C   0  0  0  0  0  0  0  0  0  0  0  0
   -9.2310   -0.5118    0.0000 C   0  0  0  0  0  0  0  0  0  0  0  0
   -8.6209    0.8585    0.0000 C   0  0  0  0  0  0  0  0  0  0  0  0
   -7.1291    1.0153    0.0000 C   0  0  0  0  0  0  0  0  0  0  0  0
   -6.5190    2.3856    0.0000 C   0  0  0  0  0  0  0  0  0  0  0  0
   -7.4006    3.5992    0.0000 O   0  0  0  0  0  0  0  0  0  0  0  0
   -5.0272    2.5424    0.0000 N   0  0  0  0  0  0  0  0  0  0  0  0
   -4.4171    3.9127    0.0000 C   0  0  0  0  0  0  0  0  0  0  0  0
   -5.1671    5.2118    0.0000 N   0  0  0  0  0  0  0  0  0  0  0  0
   -4.1634    6.3265    0.0000 N   0  0  0  0  0  0  0  0  0  0  0  0
   -2.7931    5.7164    0.0000 N   0  0  0  0  0  0  0  0  0  0  0  0
   -2.9499    4.2246    0.0000 N   0  0  0  0  0  0  0  0  0  0  0  0
   -1.8351    3.2209    0.0000 C   0  0  0  0  0  0  0  0  0  0  0  0
   -0.4086    3.6844    0.0000 C   0  0  0  0  0  0  0  0  0  0  0  0
    0.7062    2.6807    0.0000 C   0  0  0  0  0  0  0  0  0  0  0  0
    0.3943    1.2135    0.0000 C   0  0  0  0  0  0  0  0  0  0  0  0
    1.2760    0.0000    0.0000 C   0  0  0  0  0  0  0  0  0  0  0  0
    0.3943   -1.2135    0.0000 C   0  0  0  0  0  0  0  0  0  0  0  0
   -1.0323   -0.7500    0.0000 C   0  0  0  0  0  0  0  0  0  0  0  0
   -1.0323    0.7500    0.0000 C   0  0  0  0  0  0  0  0  0  0  0  0
   -2.1470    1.7537    0.0000 C   0  0  0  0  0  0  0  0  0  0  0  0
   -6.2474   -0.1982    0.0000 C   0  0  0  0  0  0  0  0  0  0  0  0
   -4.7556   -0.0414    0.0000 O   0  0  0  0  0  0  0  0  0  0  0  0
   -6.8575   -1.5685    0.0000 N   0  0  0  0  0  0  0  0  0  0  0  0
  1  2  1  0
  2  3  1  0
  3  4  2  0
  3  5  1  0
  5  6  1  0
  6  7  2  0
  7  8  1  0
  8  9  2  0
  9 10  1  0
 10 11  2  0
 10 12  1  0
 12 13  1  0
 13 14  2  0
 14 15  1  0
 15 16  2  0
 16 17  1  0
 17 18  1  0
 18 19  2  0
 19 20  1  0
 20 21  2  0
 21 22  1  0
 22 23  2  0
 23 24  1  0
 24 25  2  0
 25 26  1  0
  9 27  1  0
 27 28  2  0
 27 29  1  0
 29  6  1  0
 17 13  1  0
 26 18  1  0
 25 21  1  0
M  END
>  <Title>  (1459) 
idACECgen8

$$$$

     RDKit          2D

 23 23  0  0  0  0  0  0  0  0999 V2000
    8.0691   -1.2990    0.0000 C   0  0  0  0  0  0  0  0  0  0  0  0
    6.5691   -1.2990    0.0000 C   0  0  0  0  0  0  0  0  0  0  0  0
    5.8191   -2.5981    0.0000 O   0  0  0  0  0  0  0  0  0  0  0  0
    5.8191    0.0000    0.0000 O   0  0  0  0  0  0  0  0  0  0  0  0
    4.3191    0.0000    0.0000 C   0  0  0  0  0  0  0  0  0  0  0  0
    4.0586   -1.4772    0.0000 C   0  0  0  0  0  0  0  0  0  0  0  0
    3.3086   -2.7762    0.0000 C   0  0  0  0  0  0  0  0  0  0  0  0
    2.1595   -3.7404    0.0000 C   0  0  0  0  0  0  0  0  0  0  0  0
    0.7500   -4.2535    0.0000 C   0  0  0  0  0  0  0  0  0  0  0  0
   -0.7500   -4.2535    0.0000 C   0  0  0  0  0  0  0  0  0  0  0  0
   -2.1595   -3.7404    0.0000 C   0  0  0  0  0  0  0  0  0  0  0  0
   -3.3086   -2.7762    0.0000 C   0  0  0  0  0  0  0  0  0  0  0  0
   -4.0586   -1.4772    0.0000 C   0  0  0  0  0  0  0  0  0  0  0  0
   -4.3191    0.0000    0.0000 C   0  0  0  0  0  0  0  0  0  0  0  0
   -4.0586    1.4772    0.0000 C   0  0  0  0  0  0  0  0  0  0  0  0
   -3.3086    2.7762    0.0000 C   0  0  0  0  0  0  0  0  0  0  0  0
   -2.1595    3.7404    0.0000 C   0  0  0  0  0  0  0  0  0  0  0  0
   -0.7500    4.2535    0.0000 C   0  0  0  0  0  0  0  0  0  0  0  0
    0.7500    4.2535    0.0000 C   0  0  0  0  0  0  0  0  0  0  0  0
    2.1595    3.7404    0.0000 C   0  0  0  0  0  0  0  0  0  0  0  0
    3.3086    2.7762    0.0000 C   0  0  0  0  0  0  0  0  0  0  0  0
    4.0586    1.4772    0.0000 C   0  0  0  0  0  0  0  0  0  0  0  0
    5.4681    1.9902    0.0000 O   0  0  0  0  0  0  0  0  0  0  0  0
  1  2  1  0
  2  3  2  0
  2  4  1  0
  4  5  1  0
  5  6  2  0
  6  7  1  0
  7  8  2  0
  8  9  1  0
  9 10  2  0
 10 11  1  0
 11 12  2  0
 12 13  1  0
 13 14  2  0
 14 15  1  0
 15 16  2  0
 16 17  1  0
 17 18  2  0
 18 19  1  0
 19 20  2  0
 20 21  1  0
 21 22  2  0
 22 23  1  0
 22  5  1  0
M  END
>  <Title>  (1460) 
idACEDgen8

$$$$

     RDKit          2D

 16 16  0  0  0  0  0  0  0  0999 V2000
    5.1073    0.0000    0.0000 O   0  0  0  0  0  0  0  0  0  0  0  0
    3.6073    0.0000    0.0000 C   0  0  0  0  0  0  0  0  0  0  0  0
    3.2954    1.4672    0.0000 C   0  0  0  0  0  0  0  0  0  0  0  0
    2.4138    2.6807    0.0000 C   0  0  0  0  0  0  0  0  0  0  0  0
    1.1147    3.4307    0.0000 C   0  0  0  0  0  0  0  0  0  0  0  0
   -0.3771    3.5875    0.0000 C   0  0  0  0  0  0  0  0  0  0  0  0
   -1.8037    3.1240    0.0000 C   0  0  0  0  0  0  0  0  0  0  0  0
   -2.9184    2.1203    0.0000 C   0  0  0  0  0  0  0  0  0  0  0  0
   -3.5285    0.7500    0.0000 C   0  0  0  0  0  0  0  0  0  0  0  0
   -3.5285   -0.7500    0.0000 C   0  0  0  0  0  0  0  0  0  0  0  0
   -2.9184   -2.1203    0.0000 C   0  0  0  0  0  0  0  0  0  0  0  0
   -1.8037   -3.1240    0.0000 C   0  0  0  0  0  0  0  0  0  0  0  0
   -0.3771   -3.5875    0.0000 C   0  0  0  0  0  0  0  0  0  0  0  0
    1.1147   -3.4307    0.0000 C   0  0  0  0  0  0  0  0  0  0  0  0
    2.4138   -2.6807    0.0000 C   0  0  0  0  0  0  0  0  0  0  0  0
    3.2954   -1.4672    0.0000 C   0  0  0  0  0  0  0  0  0  0  0  0
  1  2  1  0
  2  3  2  0
  3  4  1  0
  4  5  2  0
  5  6  2  0
  6  7  1  0
  7  8  2  0
  8  9  1  0
  9 10  2  0
 10 11  1  0
 11 12  2  0
 12 13  1  0
 13 14  2  0
 14 15  1  0
 15 16  2  0
 16  2  1  0
M  END
>  <Title>  (1461) 
idACEEgen8

$$$$

     RDKit          2D

 45 50  0  0  0  0  0  0  0  0999 V2000
    4.8187    6.0424    0.0000 C   0  0  0  0  0  0  0  0  0  0  0  0
    3.8835    4.8697    0.0000 C   0  0  0  0  0  0  0  0  0  0  0  0
    2.4002    5.0933    0.0000 C   0  0  0  0  0  0  0  0  0  0  0  0
    1.4650    3.9205    0.0000 C   0  0  0  0  0  0  0  0  0  0  0  0
    2.0130    2.5242    0.0000 C   0  0  0  0  0  0  0  0  0  0  0  0
    1.0777    1.3515    0.0000 N   0  0  0  0  0  0  0  0  0  0  0  0
    1.7286    0.0000    0.0000 N   0  0  0  0  0  0  0  0  0  0  0  0
    1.0777   -1.3515    0.0000 N   0  0  0  0  0  0  0  0  0  0  0  0
   -0.3846   -1.6852    0.0000 N   0  0  0  0  0  0  0  0  0  0  0  0
   -1.5574   -0.7500    0.0000 C   0  0  0  0  0  0  0  0  0  0  0  0
   -1.5574    0.7500    0.0000 C   0  0  0  0  0  0  0  0  0  0  0  0
   -0.3846    1.6852    0.0000 C   0  0  0  0  0  0  0  0  0  0  0  0
   -0.7184    3.1476    0.0000 C   0  0  0  0  0  0  0  0  0  0  0  0
    0.3812    4.1679    0.0000 C   0  0  0  0  0  0  0  0  0  0  0  0
    0.0474    5.6303    0.0000 C   0  0  0  0  0  0  0  0  0  0  0  0
   -1.3860    6.0724    0.0000 C   0  0  0  0  0  0  0  0  0  0  0  0
   -1.7198    7.5348    0.0000 N   0  0  0  0  0  0  0  0  0  0  0  0
   -3.0991    8.1243    0.0000 N   0  0  0  0  0  0  0  0  0  0  0  0
   -2.9646    9.6183    0.0000 N   0  0  0  0  0  0  0  0  0  0  0  0
   -1.5022    9.9521    0.0000 N   0  0  0  0  0  0  0  0  0  0  0  0
   -0.7329    8.6644    0.0000 C   0  0  0  0  0  0  0  0  0  0  0  0
    0.7611    8.5300    0.0000 C   0  0  0  0  0  0  0  0  0  0  0  0
    1.2882    7.1256    0.0000 C   0  0  0  0  0  0  0  0  0  0  0  0
    2.7147    6.6621    0.0000 C   0  0  0  0  0  0  0  0  0  0  0  0
    3.9666    7.4884    0.0000 C   0  0  0  0  0  0  0  0  0  0  0  0
    5.2543    6.7191    0.0000 C   0  0  0  0  0  0  0  0  0  0  0  0
    4.1011    8.9824    0.0000 N   0  0  0  0  0  0  0  0  0  0  0  0
    3.0169   10.0190    0.0000 C   0  0  0  0  0  0  0  0  0  0  0  0
    3.4804   11.4456    0.0000 O   0  0  0  0  0  0  0  0  0  0  0  0
    1.5304    9.8176    0.0000 N   0  0  0  0  0  0  0  0  0  0  0  0
   -2.4856    5.0522    0.0000 C   0  0  0  0  0  0  0  0  0  0  0  0
   -3.9189    5.4943    0.0000 C   0  0  0  0  0  0  0  0  0  0  0  0
   -4.2527    6.9567    0.0000 C   0  0  0  0  0  0  0  0  0  0  0  0
   -5.6861    7.3988    0.0000 C   0  0  0  0  0  0  0  0  0  0  0  0
   -6.7856    6.3785    0.0000 C   0  0  0  0  0  0  0  0  0  0  0  0
   -8.2190    6.8207    0.0000 C   0  0  0  0  0  0  0  0  0  0  0  0
   -9.3186    5.8004    0.0000 O   0  0  0  0  0  0  0  0  0  0  0  0
   -8.5528    8.2831    0.0000 N   0  0  0  0  0  0  0  0  0  0  0  0
   -9.9861    8.7252    0.0000 O   0  0  0  0  0  0  0  0  0  0  0  0
   -6.4519    4.9162    0.0000 N   0  0  0  0  0  0  0  0  0  0  0  0
   -5.0185    4.4740    0.0000 C   0  0  0  0  0  0  0  0  0  0  0  0
   -4.6847    3.0116    0.0000 O   0  0  0  0  0  0  0  0  0  0  0  0
   -2.1518    3.5898    0.0000 C   0  0  0  0  0  0  0  0  0  0  0  0
    3.4962    2.3006    0.0000 C   0  0  0  0  0  0  0  0  0  0  0  0
    4.4315    3.4734    0.0000 C   0  0  0  0  0  0  0  0  0  0  0  0
  1  2  1  0
  2  3  2  0
  3  4  1  0
  4  5  2  0
  5  6  1  0
  6  7  1  0
  7  8  2  0
  8  9  1  0
  9 10  2  0
 10 11  1  0
 11 12  2  0
 12 13  1  0
 13 14  2  0
 14 15  1  0
 15 16  2  0
 16 17  1  0
 17 18  1  0
 18 19  2  0
 19 20  1  0
 20 21  2  0
 21 22  1  0
 22 23  2  0
 23 24  1  0
 24 25  2  0
 25 26  1  0
 25 27  1  0
 27 28  1  0
 28 29  2  0
 28 30  1  0
 16 31  1  0
 31 32  1  0
 32 33  2  0
 33 34  1  0
 34 35  2  0
 35 36  1  0
 36 37  2  0
 36 38  1  0
 38 39  1  0
 35 40  1  0
 40 41  1  0
 41 42  2  0
 31 43  2  0
  5 44  1  0
 44 45  1  0
 45  2  1  0
 12  6  1  0
 43 13  1  0
 21 17  1  0
 30 22  1  0
 41 32  1  0
M  END
>  <Title>  (1462) 
idACEFgen8

$$$$

     RDKit          2D

 38 43  0  0  0  0  0  0  0  0999 V2000
    3.0000    0.0000    0.0000 C   0  0  0  0  0  0  0  0  0  0  0  0
    1.5000    0.0000    0.0000 C   0  0  0  0  0  0  0  0  0  0  0  0
    0.7500   -1.2990    0.0000 C   0  0  0  0  0  0  0  0  0  0  0  0
   -0.7500   -1.2990    0.0000 C   0  0  0  0  0  0  0  0  0  0  0  0
   -1.5000    0.0000    0.0000 C   0  0  0  0  0  0  0  0  0  0  0  0
   -3.0000    0.0000    0.0000 C   0  0  0  0  0  0  0  0  0  0  0  0
   -3.8817   -1.2135    0.0000 C   0  0  0  0  0  0  0  0  0  0  0  0
   -5.3083   -0.7500    0.0000 N   0  0  0  0  0  0  0  0  0  0  0  0
   -5.3083    0.7500    0.0000 N   0  0  0  0  0  0  0  0  0  0  0  0
   -3.8817    1.2135    0.0000 N   0  0  0  0  0  0  0  0  0  0  0  0
   -3.4182    2.6401    0.0000 C   0  0  0  0  0  0  0  0  0  0  0  0
   -1.9509    2.9520    0.0000 C   0  0  0  0  0  0  0  0  0  0  0  0
   -1.4874    4.3786    0.0000 C   0  0  0  0  0  0  0  0  0  0  0  0
   -2.4911    5.4933    0.0000 C   0  0  0  0  0  0  0  0  0  0  0  0
   -2.0276    6.9199    0.0000 C   0  0  0  0  0  0  0  0  0  0  0  0
   -0.5604    7.2317    0.0000 C   0  0  0  0  0  0  0  0  0  0  0  0
   -0.0968    8.6583    0.0000 C   0  0  0  0  0  0  0  0  0  0  0  0
   -1.1005    9.7730    0.0000 N   0  0  0  0  0  0  0  0  0  0  0  0
   -2.5677    9.4612    0.0000 N   0  0  0  0  0  0  0  0  0  0  0  0
   -3.0313    8.0346    0.0000 C   0  0  0  0  0  0  0  0  0  0  0  0
   -4.4985    7.7227    0.0000 C   0  0  0  0  0  0  0  0  0  0  0  0
   -5.5022    8.8374    0.0000 C   0  0  0  0  0  0  0  0  0  0  0  0
   -6.9694    8.5256    0.0000 C   0  0  0  0  0  0  0  0  0  0  0  0
   -7.4329    7.0990    0.0000 C   0  0  0  0  0  0  0  0  0  0  0  0
   -6.4292    5.9843    0.0000 C   0  0  0  0  0  0  0  0  0  0  0  0
   -4.9620    6.2961    0.0000 C   0  0  0  0  0  0  0  0  0  0  0  0
   -3.9583    5.1814    0.0000 C   0  0  0  0  0  0  0  0  0  0  0  0
   -4.4218    3.7548    0.0000 C   0  0  0  0  0  0  0  0  0  0  0  0
   -5.8891    3.4430    0.0000 C   0  0  0  0  0  0  0  0  0  0  0  0
   -6.8928    4.5577    0.0000 C   0  0  0  0  0  0  0  0  0  0  0  0
   -8.3600    4.2458    0.0000 C   0  0  0  0  0  0  0  0  0  0  0  0
   -8.8235    2.8192    0.0000 C   0  0  0  0  0  0  0  0  0  0  0  0
  -10.2907    2.5074    0.0000 C   0  0  0  0  0  0  0  0  0  0  0  0
   -7.8198    1.7045    0.0000 C   0  0  0  0  0  0  0  0  0  0  0  0
   -8.2833    0.2779    0.0000 O   0  0  0  0  0  0  0  0  0  0  0  0
   -6.3526    2.0164    0.0000 N   0  0  0  0  0  0  0  0  0  0  0  0
   -0.7500    1.2990    0.0000 N   0  0  0  0  0  0  0  0  0  0  0  0
    0.7500    1.2990    0.0000 C   0  0  0  0  0  0  0  0  0  0  0  0
  1  2  1  0
  2  3  2  0
  3  4  1  0
  4  5  2  0
  5  6  1  0
  6  7  2  0
  7  8  1  0
  8  9  2  0
  9 10  1  0
 10 11  1  0
 11 12  2  0
 12 13  1  0
 13 14  2  0
 14 15  1  0
 15 16  2  0
 16 17  1  0
 17 18  2  0
 18 19  1  0
 19 20  2  0
 20 21  1  0
 21 22  2  0
 22 23  1  0
 23 24  2  0
 24 25  1  0
 25 26  2  0
 14 27  1  0
 27 28  2  0
 28 29  1  0
 29 30  2  0
 30 31  1  0
 31 32  2  0
 32 33  1  0
 32 34  1  0
 34 35  2  0
 34 36  1  0
  5 37  1  0
 37 38  1  0
 38  2  1  0
 10  6  1  0
 28 11  1  0
 36 29  1  0
 20 15  1  0
 26 21  1  0
M  END
>  <Title>  (1463) 
idACEGgen8

$$$$

     RDKit          2D

 55 62  0  0  0  0  0  0  0  0999 V2000
    5.4662    3.8926    0.0000 C   0  0  0  0  0  0  0  0  0  0  0  0
    5.4325    2.3930    0.0000 C   0  0  0  0  0  0  0  0  0  0  0  0
    4.0668    1.7727    0.0000 C   0  0  0  0  0  0  0  0  0  0  0  0
    3.7003    0.3181    0.0000 C   0  0  0  0  0  0  0  0  0  0  0  0
    4.6090   -0.8753    0.0000 C   0  0  0  0  0  0  0  0  0  0  0  0
    3.9280   -2.2118    0.0000 C   0  0  0  0  0  0  0  0  0  0  0  0
    4.6090   -3.5483    0.0000 N   0  0  0  0  0  0  0  0  0  0  0  0
    3.5483   -4.6090    0.0000 N   0  0  0  0  0  0  0  0  0  0  0  0
    2.2118   -3.9280    0.0000 N   0  0  0  0  0  0  0  0  0  0  0  0
    2.4465   -2.4465    0.0000 N   0  0  0  0  0  0  0  0  0  0  0  0
    1.3858   -1.3858    0.0000 C   0  0  0  0  0  0  0  0  0  0  0  0
    1.9598    0.0000    0.0000 C   0  0  0  0  0  0  0  0  0  0  0  0
    1.3858    1.3858    0.0000 C   0  0  0  0  0  0  0  0  0  0  0  0
    0.0000    1.9598    0.0000 C   0  0  0  0  0  0  0  0  0  0  0  0
   -1.3858    1.3858    0.0000 C   0  0  0  0  0  0  0  0  0  0  0  0
   -1.9598    0.0000    0.0000 C   0  0  0  0  0  0  0  0  0  0  0  0
   -3.4598    0.0000    0.0000 C   0  0  0  0  0  0  0  0  0  0  0  0
   -4.3415   -1.2135    0.0000 N   0  0  0  0  0  0  0  0  0  0  0  0
   -5.7681   -0.7500    0.0000 N   0  0  0  0  0  0  0  0  0  0  0  0
   -5.7681    0.7500    0.0000 N   0  0  0  0  0  0  0  0  0  0  0  0
   -4.3415    1.2135    0.0000 N   0  0  0  0  0  0  0  0  0  0  0  0
   -3.8780    2.6401    0.0000 C   0  0  0  0  0  0  0  0  0  0  0  0
   -2.4108    2.9520    0.0000 C   0  0  0  0  0  0  0  0  0  0  0  0
   -1.9472    4.3786    0.0000 C   0  0  0  0  0  0  0  0  0  0  0  0
   -2.9509    5.4933    0.0000 C   0  0  0  0  0  0  0  0  0  0  0  0
   -4.4182    5.1814    0.0000 C   0  0  0  0  0  0  0  0  0  0  0  0
   -4.8817    3.7548    0.0000 C   0  0  0  0  0  0  0  0  0  0  0  0
   -1.3858   -1.3858    0.0000 C   0  0  0  0  0  0  0  0  0  0  0  0
   -0.0000   -1.9598    0.0000 C   0  0  0  0  0  0  0  0  0  0  0  0
   -0.0000   -3.4598    0.0000 C   0  0  0  0  0  0  0  0  0  0  0  0
    1.2135   -4.3415    0.0000 C   0  0  0  0  0  0  0  0  0  0  0  0
    0.7500   -5.7681    0.0000 C   0  0  0  0  0  0  0  0  0  0  0  0
   -0.7500   -5.7681    0.0000 C   0  0  0  0  0  0  0  0  0  0  0  0
   -1.6317   -6.9816    0.0000 C   0  0  0  0  0  0  0  0  0  0  0  0
   -3.1076   -6.7138    0.0000 C   0  0  0  0  0  0  0  0  0  0  0  0
   -4.2372   -7.7007    0.0000 C   0  0  0  0  0  0  0  0  0  0  0  0
   -4.1699   -9.1992    0.0000 N   0  0  0  0  0  0  0  0  0  0  0  0
   -2.9564  -10.0809    0.0000 N   0  0  0  0  0  0  0  0  0  0  0  0
   -1.5104   -9.6818    0.0000 N   0  0  0  0  0  0  0  0  0  0  0  0
   -0.9209   -8.3025    0.0000 N   0  0  0  0  0  0  0  0  0  0  0  0
    0.5776   -8.2352    0.0000 C   0  0  0  0  0  0  0  0  0  0  0  0
    1.2686   -6.9038    0.0000 C   0  0  0  0  0  0  0  0  0  0  0  0
    2.7671   -6.8366    0.0000 C   0  0  0  0  0  0  0  0  0  0  0  0
    3.5746   -8.1006    0.0000 C   0  0  0  0  0  0  0  0  0  0  0  0
    5.0731   -8.0333    0.0000 C   0  0  0  0  0  0  0  0  0  0  0  0
    5.7640   -6.7020    0.0000 O   0  0  0  0  0  0  0  0  0  0  0  0
    5.8806   -9.2974    0.0000 N   0  0  0  0  0  0  0  0  0  0  0  0
    7.3791   -9.2301    0.0000 O   0  0  0  0  0  0  0  0  0  0  0  0
    2.8836   -9.4320    0.0000 C   0  0  0  0  0  0  0  0  0  0  0  0
    1.3851   -9.4993    0.0000 C   0  0  0  0  0  0  0  0  0  0  0  0
   -1.2135   -4.3415    0.0000 C   0  0  0  0  0  0  0  0  0  0  0  0
   -2.6401   -3.8780    0.0000 O   0  0  0  0  0  0  0  0  0  0  0  0
    6.1086   -0.9090    0.0000 N   0  0  0  0  0  0  0  0  0  0  0  0
    7.0699    0.2425    0.0000 C   0  0  0  0  0  0  0  0  0  0  0  0
    6.7690    1.7120    0.0000 C   0  0  0  0  0  0  0  0  0  0  0  0
  1  2  1  0
  2  3  2  0
  3  4  1  0
  4  5  2  0
  5  6  1  0
  6  7  2  0
  7  8  1  0
  8  9  2  0
  9 10  1  0
 10 11  1  0
 11 12  1  0
 12 13  1  0
 13 14  1  0
 14 15  1  0
 15 16  1  0
 16 17  1  0
 17 18  2  0
 18 19  1  0
 19 20  2  0
 20 21  1  0
 21 22  1  0
 22 23  2  0
 23 24  1  0
 24 25  2  0
 25 26  1  0
 26 27  2  0
 16 28  1  0
 28 29  2  0
 29 30  1  0
 30 31  2  0
 31 32  1  0
 32 33  2  0
 33 34  1  0
 34 35  2  0
 35 36  1  0
 36 37  2  0
 37 38  1  0
 38 39  2  0
 39 40  1  0
 40 41  1  0
 41 42  2  0
 42 43  1  0
 43 44  2  0
 44 45  1  0
 45 46  2  0
 45 47  1  0
 47 48  1  0
 44 49  1  0
 49 50  1  0
 33 51  1  0
 51 52  2  0
  5 53  1  0
 53 54  1  0
 54 55  1  0
 55  2  1  0
 10  6  1  0
 29 11  1  0
 51 30  1  0
 21 17  1  0
 27 22  1  0
 40 34  1  0
 50 41  1  0
M  END
>  <Title>  (1464) 
idACEHgen8

$$$$

     RDKit          2D

 30 33  0  0  0  0  0  0  0  0999 V2000
    3.7500    1.2990    0.0000 C   0  0  0  0  0  0  0  0  0  0  0  0
    3.0000    0.0000    0.0000 O   0  0  0  0  0  0  0  0  0  0  0  0
    1.5000    0.0000    0.0000 C   0  0  0  0  0  0  0  0  0  0  0  0
    0.7500    1.2990    0.0000 C   0  0  0  0  0  0  0  0  0  0  0  0
   -0.7500    1.2990    0.0000 C   0  0  0  0  0  0  0  0  0  0  0  0
   -1.5000    0.0000    0.0000 C   0  0  0  0  0  0  0  0  0  0  0  0
   -3.0000    0.0000    0.0000 C   0  0  0  0  0  0  0  0  0  0  0  0
   -3.8817   -1.2135    0.0000 N   0  0  0  0  0  0  0  0  0  0  0  0
   -5.3083   -0.7500    0.0000 N   0  0  0  0  0  0  0  0  0  0  0  0
   -5.3083    0.7500    0.0000 N   0  0  0  0  0  0  0  0  0  0  0  0
   -3.8817    1.2135    0.0000 N   0  0  0  0  0  0  0  0  0  0  0  0
   -3.4182    2.6401    0.0000 C   0  0  0  0  0  0  0  0  0  0  0  0
   -1.9509    2.9520    0.0000 C   0  0  0  0  0  0  0  0  0  0  0  0
   -1.4874    4.3786    0.0000 C   0  0  0  0  0  0  0  0  0  0  0  0
   -2.4911    5.4933    0.0000 C   0  0  0  0  0  0  0  0  0  0  0  0
   -3.9583    5.1814    0.0000 C   0  0  0  0  0  0  0  0  0  0  0  0
   -4.4218    3.7548    0.0000 C   0  0  0  0  0  0  0  0  0  0  0  0
   -5.8891    3.4430    0.0000 C   0  0  0  0  0  0  0  0  0  0  0  0
   -6.8928    4.5577    0.0000 C   0  0  0  0  0  0  0  0  0  0  0  0
   -8.3600    4.2458    0.0000 C   0  0  0  0  0  0  0  0  0  0  0  0
   -8.8235    2.8192    0.0000 C   0  0  0  0  0  0  0  0  0  0  0  0
  -10.2907    2.5074    0.0000 C   0  0  0  0  0  0  0  0  0  0  0  0
  -10.7543    1.0808    0.0000 O   0  0  0  0  0  0  0  0  0  0  0  0
  -11.2944    3.6221    0.0000 N   0  0  0  0  0  0  0  0  0  0  0  0
  -12.7617    3.3102    0.0000 O   0  0  0  0  0  0  0  0  0  0  0  0
   -7.8198    1.7045    0.0000 C   0  0  0  0  0  0  0  0  0  0  0  0
   -6.3526    2.0164    0.0000 C   0  0  0  0  0  0  0  0  0  0  0  0
   -0.7500   -1.2990    0.0000 C   0  0  0  0  0  0  0  0  0  0  0  0
   -1.5000   -2.5981    0.0000 O   0  0  0  0  0  0  0  0  0  0  0  0
    0.7500   -1.2990    0.0000 N   0  0  0  0  0  0  0  0  0  0  0  0
  1  2  1  0
  2  3  1  0
  3  4  2  0
  4  5  1  0
  5  6  2  0
  6  7  1  0
  7  8  2  0
  8  9  1  0
  9 10  2  0
 10 11  1  0
 11 12  1  0
 12 13  1  0
 13 14  1  0
 14 15  1  0
 15 16  1  0
 16 17  1  0
 17 18  1  0
 18 19  2  0
 19 20  1  0
 20 21  2  0
 21 22  1  0
 22 23  2  0
 22 24  1  0
 24 25  1  0
 21 26  1  0
 26 27  1  0
  6 28  1  0
 28 29  2  0
 28 30  1  0
 30  3  1  0
 11  7  1  0
 17 12  1  0
 27 18  1  0
M  END
>  <Title>  (1465) 
idACEIgen8

$$$$

     RDKit          2D

 19 19  0  0  0  0  0  0  0  0999 V2000
    6.0944   -1.2990    0.0000 C   0  0  0  0  0  0  0  0  0  0  0  0
    5.3444    0.0000    0.0000 O   0  0  0  0  0  0  0  0  0  0  0  0
    3.8444    0.0000    0.0000 C   0  0  0  0  0  0  0  0  0  0  0  0
    3.5517   -1.4712    0.0000 C   0  0  0  0  0  0  0  0  0  0  0  0
    2.7184   -2.7184    0.0000 C   0  0  0  0  0  0  0  0  0  0  0  0
    1.4712   -3.5517    0.0000 C   0  0  0  0  0  0  0  0  0  0  0  0
   -0.0000   -3.8444    0.0000 C   0  0  0  0  0  0  0  0  0  0  0  0
   -1.4712   -3.5517    0.0000 C   0  0  0  0  0  0  0  0  0  0  0  0
   -2.7184   -2.7184    0.0000 C   0  0  0  0  0  0  0  0  0  0  0  0
   -3.5517   -1.4712    0.0000 C   0  0  0  0  0  0  0  0  0  0  0  0
   -3.8444    0.0000    0.0000 C   0  0  0  0  0  0  0  0  0  0  0  0
   -3.5517    1.4712    0.0000 C   0  0  0  0  0  0  0  0  0  0  0  0
   -2.7184    2.7184    0.0000 C   0  0  0  0  0  0  0  0  0  0  0  0
   -1.4712    3.5517    0.0000 C   0  0  0  0  0  0  0  0  0  0  0  0
    0.0000    3.8444    0.0000 C   0  0  0  0  0  0  0  0  0  0  0  0
    1.4712    3.5517    0.0000 C   0  0  0  0  0  0  0  0  0  0  0  0
    2.7184    2.7184    0.0000 C   0  0  0  0  0  0  0  0  0  0  0  0
    3.5517    1.4712    0.0000 C   0  0  0  0  0  0  0  0  0  0  0  0
    4.9376    2.0452    0.0000 C   0  0  0  0  0  0  0  0  0  0  0  0
  1  2  1  0
  2  3  1  0
  3  4  2  0
  4  5  1  0
  5  6  2  0
  6  7  1  0
  7  8  2  0
  8  9  1  0
  9 10  2  0
 10 11  1  0
 11 12  2  0
 12 13  1  0
 13 14  2  0
 14 15  1  0
 15 16  2  0
 16 17  1  0
 17 18  2  0
 18 19  1  0
 18  3  1  0
M  END
>  <Title>  (1466) 
idACEJgen8

$$$$

     RDKit          2D

 32 36  0  0  0  0  0  0  0  0999 V2000
    3.0000    0.0000    0.0000 C   0  0  0  0  0  0  0  0  0  0  0  0
    1.5000    0.0000    0.0000 C   0  0  0  0  0  0  0  0  0  0  0  0
    0.7500    1.2990    0.0000 C   0  0  0  0  0  0  0  0  0  0  0  0
   -0.7500    1.2990    0.0000 C   0  0  0  0  0  0  0  0  0  0  0  0
   -1.5000    0.0000    0.0000 C   0  0  0  0  0  0  0  0  0  0  0  0
   -3.0000    0.0000    0.0000 C   0  0  0  0  0  0  0  0  0  0  0  0
   -3.8817   -1.2135    0.0000 N   0  0  0  0  0  0  0  0  0  0  0  0
   -5.3083   -0.7500    0.0000 N   0  0  0  0  0  0  0  0  0  0  0  0
   -5.3083    0.7500    0.0000 N   0  0  0  0  0  0  0  0  0  0  0  0
   -3.8817    1.2135    0.0000 N   0  0  0  0  0  0  0  0  0  0  0  0
   -3.4182    2.6401    0.0000 C   0  0  0  0  0  0  0  0  0  0  0  0
   -1.9509    2.9520    0.0000 C   0  0  0  0  0  0  0  0  0  0  0  0
   -1.4874    4.3786    0.0000 C   0  0  0  0  0  0  0  0  0  0  0  0
   -2.4911    5.4933    0.0000 C   0  0  0  0  0  0  0  0  0  0  0  0
   -3.9583    5.1814    0.0000 C   0  0  0  0  0  0  0  0  0  0  0  0
   -4.4218    3.7548    0.0000 C   0  0  0  0  0  0  0  0  0  0  0  0
   -5.8891    3.4430    0.0000 C   0  0  0  0  0  0  0  0  0  0  0  0
   -6.4992    2.0726    0.0000 N   0  0  0  0  0  0  0  0  0  0  0  0
   -7.9910    2.2294    0.0000 N   0  0  0  0  0  0  0  0  0  0  0  0
   -8.3028    3.6967    0.0000 N   0  0  0  0  0  0  0  0  0  0  0  0
   -7.0038    4.4467    0.0000 N   0  0  0  0  0  0  0  0  0  0  0  0
   -6.8470    5.9384    0.0000 C   0  0  0  0  0  0  0  0  0  0  0  0
   -5.4767    6.5485    0.0000 N   0  0  0  0  0  0  0  0  0  0  0  0
   -5.3199    8.0403    0.0000 C   0  0  0  0  0  0  0  0  0  0  0  0
   -3.9496    8.6504    0.0000 O   0  0  0  0  0  0  0  0  0  0  0  0
   -6.5334    8.9220    0.0000 N   0  0  0  0  0  0  0  0  0  0  0  0
   -7.9037    8.3119    0.0000 C   0  0  0  0  0  0  0  0  0  0  0  0
   -9.1173    9.1936    0.0000 O   0  0  0  0  0  0  0  0  0  0  0  0
   -8.0605    6.8201    0.0000 N   0  0  0  0  0  0  0  0  0  0  0  0
   -0.7500   -1.2990    0.0000 C   0  0  0  0  0  0  0  0  0  0  0  0
   -1.5000   -2.5981    0.0000 O   0  0  0  0  0  0  0  0  0  0  0  0
    0.7500   -1.2990    0.0000 N   0  0  0  0  0  0  0  0  0  0  0  0
  1  2  1  0
  2  3  2  0
  3  4  1  0
  4  5  2  0
  5  6  1  0
  6  7  2  0
  7  8  1  0
  8  9  2  0
  9 10  1  0
 10 11  1  0
 11 12  1  0
 12 13  1  0
 13 14  1  0
 14 15  1  0
 15 16  1  0
 16 17  1  0
 17 18  2  0
 18 19  1  0
 19 20  2  0
 20 21  1  0
 21 22  1  0
 22 23  1  0
 23 24  1  0
 24 25  2  0
 24 26  1  0
 26 27  1  0
 27 28  2  0
 27 29  1  0
  5 30  1  0
 30 31  2  0
 30 32  1  0
 32  2  1  0
 10  6  1  0
 16 11  1  0
 21 17  1  0
 29 22  1  0
M  END
>  <Title>  (1467) 
idACEKgen8

$$$$

     RDKit          2D

 30 34  0  0  0  0  0  0  0  0999 V2000
    3.0000    0.0000    0.0000 C   0  0  0  0  0  0  0  0  0  0  0  0
    1.5000    0.0000    0.0000 C   0  0  0  0  0  0  0  0  0  0  0  0
    0.7500    1.2990    0.0000 C   0  0  0  0  0  0  0  0  0  0  0  0
   -0.7500    1.2990    0.0000 C   0  0  0  0  0  0  0  0  0  0  0  0
   -1.5000    0.0000    0.0000 C   0  0  0  0  0  0  0  0  0  0  0  0
   -3.0000    0.0000    0.0000 C   0  0  0  0  0  0  0  0  0  0  0  0
   -3.8817   -1.2135    0.0000 N   0  0  0  0  0  0  0  0  0  0  0  0
   -5.3083   -0.7500    0.0000 N   0  0  0  0  0  0  0  0  0  0  0  0
   -5.3083    0.7500    0.0000 N   0  0  0  0  0  0  0  0  0  0  0  0
   -3.8817    1.2135    0.0000 N   0  0  0  0  0  0  0  0  0  0  0  0
   -3.4182    2.6401    0.0000 C   0  0  0  0  0  0  0  0  0  0  0  0
   -4.2998    3.8536    0.0000 C   0  0  0  0  0  0  0  0  0  0  0  0
   -3.4182    5.0672    0.0000 C   0  0  0  0  0  0  0  0  0  0  0  0
   -1.9916    4.6036    0.0000 C   0  0  0  0  0  0  0  0  0  0  0  0
   -0.7780    5.4853    0.0000 C   0  0  0  0  0  0  0  0  0  0  0  0
    0.6485    5.0218    0.0000 N   0  0  0  0  0  0  0  0  0  0  0  0
    1.5302    6.2353    0.0000 N   0  0  0  0  0  0  0  0  0  0  0  0
    0.6485    7.4488    0.0000 N   0  0  0  0  0  0  0  0  0  0  0  0
   -0.7780    6.9853    0.0000 N   0  0  0  0  0  0  0  0  0  0  0  0
   -1.9916    7.8670    0.0000 C   0  0  0  0  0  0  0  0  0  0  0  0
   -3.3619    7.2569    0.0000 C   0  0  0  0  0  0  0  0  0  0  0  0
   -4.5754    8.1386    0.0000 C   0  0  0  0  0  0  0  0  0  0  0  0
   -4.4186    9.6303    0.0000 C   0  0  0  0  0  0  0  0  0  0  0  0
   -3.0483   10.2405    0.0000 C   0  0  0  0  0  0  0  0  0  0  0  0
   -1.8348    9.3588    0.0000 C   0  0  0  0  0  0  0  0  0  0  0  0
   -1.9916    3.1036    0.0000 C   0  0  0  0  0  0  0  0  0  0  0  0
   -0.7780    2.2220    0.0000 O   0  0  0  0  0  0  0  0  0  0  0  0
   -0.7500   -1.2990    0.0000 N   0  0  0  0  0  0  0  0  0  0  0  0
    0.7500   -1.2990    0.0000 C   0  0  0  0  0  0  0  0  0  0  0  0
    1.5000   -2.5981    0.0000 O   0  0  0  0  0  0  0  0  0  0  0  0
  1  2  1  0
  2  3  2  0
  3  4  1  0
  4  5  2  0
  5  6  1  0
  6  7  2  0
  7  8  1  0
  8  9  2  0
  9 10  1  0
 10 11  1  0
 11 12  2  0
 12 13  1  0
 13 14  2  0
 14 15  1  0
 15 16  2  0
 16 17  1  0
 17 18  2  0
 18 19  1  0
 19 20  1  0
 20 21  2  0
 21 22  1  0
 22 23  2  0
 23 24  1  0
 24 25  2  0
 14 26  1  0
 26 27  2  0
  5 28  1  0
 28 29  1  0
 29 30  2  0
 29  2  1  0
 10  6  1  0
 26 11  1  0
 19 15  1  0
 25 20  1  0
M  END
>  <Title>  (1468) 
idACELgen8

$$$$

     RDKit          2D

 16 16  0  0  0  0  0  0  0  0999 V2000
    3.7500    1.2990    0.0000 O   0  0  0  0  0  0  0  0  0  0  0  0
    3.0000    0.0000    0.0000 C   0  0  0  0  0  0  0  0  0  0  0  0
    3.7500   -1.2990    0.0000 N   0  0  0  0  0  0  0  0  0  0  0  0
    5.2500   -1.2990    0.0000 C   0  0  0  0  0  0  0  0  0  0  0  0
    6.0000   -2.5981    0.0000 C   0  0  0  0  0  0  0  0  0  0  0  0
    7.5000   -2.5981    0.0000 N   0  0  0  0  0  0  0  0  0  0  0  0
    8.2500   -3.8971    0.0000 N   0  0  0  0  0  0  0  0  0  0  0  0
    9.7500   -3.8971    0.0000 N   0  0  0  0  0  0  0  0  0  0  0  0
   10.5000   -5.1962    0.0000 O   0  0  0  0  0  0  0  0  0  0  0  0
    1.5000    0.0000    0.0000 C   0  0  0  0  0  0  0  0  0  0  0  0
    0.7500   -1.2990    0.0000 C   0  0  0  0  0  0  0  0  0  0  0  0
   -0.7500   -1.2990    0.0000 C   0  0  0  0  0  0  0  0  0  0  0  0
   -1.5000    0.0000    0.0000 C   0  0  0  0  0  0  0  0  0  0  0  0
   -3.0000    0.0000    0.0000 O   0  0  0  0  0  0  0  0  0  0  0  0
   -0.7500    1.2990    0.0000 C   0  0  0  0  0  0  0  0  0  0  0  0
    0.7500    1.2990    0.0000 C   0  0  0  0  0  0  0  0  0  0  0  0
  1  2  2  0
  2  3  1  0
  3  4  1  0
  4  5  1  0
  5  6  2  3
  6  7  1  0
  7  8  2  3
  8  9  1  0
  2 10  1  0
 10 11  2  0
 11 12  1  0
 12 13  2  0
 13 14  1  0
 13 15  1  0
 15 16  2  0
 16 10  1  0
M  END
>  <Title>  (1469) 
idACEMgen8

$$$$

     RDKit          2D

  9  9  0  0  0  0  0  0  0  0999 V2000
    3.0000    0.0000    0.0000 C   0  0  0  0  0  0  0  0  0  0  0  0
    1.5000    0.0000    0.0000 C   0  0  0  0  0  0  0  0  0  0  0  0
    0.7500   -1.2990    0.0000 C   0  0  0  0  0  0  0  0  0  0  0  0
   -0.7500   -1.2990    0.0000 C   0  0  0  0  0  0  0  0  0  0  0  0
   -1.5000    0.0000    0.0000 C   0  0  0  0  0  0  0  0  0  0  0  0
   -3.0000    0.0000    0.0000 F   0  0  0  0  0  0  0  0  0  0  0  0
   -0.7500    1.2990    0.0000 C   0  0  0  0  0  0  0  0  0  0  0  0
    0.7500    1.2990    0.0000 C   0  0  0  0  0  0  0  0  0  0  0  0
    1.5000    2.5981    0.0000 C   0  0  0  0  0  0  0  0  0  0  0  0
  1  2  1  0
  2  3  2  0
  3  4  1  0
  4  5  2  0
  5  6  1  0
  5  7  1  0
  7  8  2  0
  8  9  1  0
  8  2  1  0
M  END
>  <Title>  (1470) 
idACENgen8

$$$$

     RDKit          2D

 14 14  0  0  0  0  0  0  0  0999 V2000
    4.3978    0.0000    0.0000 C   0  0  0  0  0  0  0  0  0  0  0  0
    2.8978    0.0000    0.0000 C   0  0  0  0  0  0  0  0  0  0  0  0
    2.5095   -1.4489    0.0000 C   0  0  0  0  0  0  0  0  0  0  0  0
    1.4489   -2.5095    0.0000 C   0  0  0  0  0  0  0  0  0  0  0  0
   -0.0000   -2.8978    0.0000 C   0  0  0  0  0  0  0  0  0  0  0  0
   -1.4489   -2.5095    0.0000 C   0  0  0  0  0  0  0  0  0  0  0  0
   -2.5095   -1.4489    0.0000 C   0  0  0  0  0  0  0  0  0  0  0  0
   -2.8978    0.0000    0.0000 C   0  0  0  0  0  0  0  0  0  0  0  0
   -2.5095    1.4489    0.0000 C   0  0  0  0  0  0  0  0  0  0  0  0
   -1.4489    2.5095    0.0000 C   0  0  0  0  0  0  0  0  0  0  0  0
    0.0000    2.8978    0.0000 C   0  0  0  0  0  0  0  0  0  0  0  0
    0.0000    4.3978    0.0000 C   0  0  0  0  0  0  0  0  0  0  0  0
    1.4489    2.5095    0.0000 C   0  0  0  0  0  0  0  0  0  0  0  0
    2.5095    1.4489    0.0000 C   0  0  0  0  0  0  0  0  0  0  0  0
  1  2  1  0
  2  3  2  0
  3  4  1  0
  4  5  2  0
  5  6  1  0
  6  7  2  0
  7  8  1  0
  8  9  2  0
  9 10  1  0
 10 11  2  0
 11 12  1  0
 11 13  1  0
 13 14  1  0
 14  2  1  0
M  END
>  <Title>  (1471) 
idACEOgen8

$$$$

     RDKit          2D

 27 27  0  0  0  0  0  0  0  0999 V2000
    7.7222    0.0000    0.0000 C   0  0  0  0  0  0  0  0  0  0  0  0
    6.2222    0.0000    0.0000 C   0  0  0  0  0  0  0  0  0  0  0  0
    6.0414   -1.4891    0.0000 C   0  0  0  0  0  0  0  0  0  0  0  0
    5.5095   -2.8916    0.0000 C   0  0  0  0  0  0  0  0  0  0  0  0
    4.6574   -4.1261    0.0000 C   0  0  0  0  0  0  0  0  0  0  0  0
    3.5346   -5.1207    0.0000 C   0  0  0  0  0  0  0  0  0  0  0  0
    2.2064   -5.8178    0.0000 C   0  0  0  0  0  0  0  0  0  0  0  0
    0.7500   -6.1768    0.0000 C   0  0  0  0  0  0  0  0  0  0  0  0
   -0.7500   -6.1768    0.0000 C   0  0  0  0  0  0  0  0  0  0  0  0
   -2.2064   -5.8178    0.0000 C   0  0  0  0  0  0  0  0  0  0  0  0
   -3.5346   -5.1207    0.0000 C   0  0  0  0  0  0  0  0  0  0  0  0
   -4.6574   -4.1261    0.0000 C   0  0  0  0  0  0  0  0  0  0  0  0
   -5.5095   -2.8916    0.0000 C   0  0  0  0  0  0  0  0  0  0  0  0
   -6.0414   -1.4891    0.0000 C   0  0  0  0  0  0  0  0  0  0  0  0
   -6.2222    0.0000    0.0000 C   0  0  0  0  0  0  0  0  0  0  0  0
   -6.0414    1.4891    0.0000 C   0  0  0  0  0  0  0  0  0  0  0  0
   -5.5095    2.8916    0.0000 C   0  0  0  0  0  0  0  0  0  0  0  0
   -4.6574    4.1261    0.0000 C   0  0  0  0  0  0  0  0  0  0  0  0
   -3.5346    5.1207    0.0000 C   0  0  0  0  0  0  0  0  0  0  0  0
   -2.2064    5.8178    0.0000 C   0  0  0  0  0  0  0  0  0  0  0  0
   -0.7500    6.1768    0.0000 C   0  0  0  0  0  0  0  0  0  0  0  0
    0.7500    6.1768    0.0000 C   0  0  0  0  0  0  0  0  0  0  0  0
    2.2064    5.8178    0.0000 C   0  0  0  0  0  0  0  0  0  0  0  0
    3.5346    5.1207    0.0000 C   0  0  0  0  0  0  0  0  0  0  0  0
    4.6574    4.1261    0.0000 C   0  0  0  0  0  0  0  0  0  0  0  0
    5.5095    2.8916    0.0000 C   0  0  0  0  0  0  0  0  0  0  0  0
    6.0414    1.4891    0.0000 C   0  0  0  0  0  0  0  0  0  0  0  0
  1  2  2  0
  2  3  1  0
  3  4  2  0
  4  5  1  0
  5  6  2  0
  6  7  1  0
  7  8  2  0
  8  9  1  0
  9 10  2  0
 10 11  1  0
 11 12  2  0
 12 13  1  0
 13 14  2  0
 14 15  1  0
 15 16  2  0
 16 17  1  0
 17 18  2  0
 18 19  1  0
 19 20  2  0
 20 21  1  0
 21 22  2  0
 22 23  1  0
 23 24  1  0
 24 25  1  0
 25 26  1  0
 26 27  1  0
 27  2  1  0
M  END
>  <Title>  (1472) 
idACEPgen8

$$$$

     RDKit          2D

 16 16  0  0  0  0  0  0  0  0999 V2000
    5.1073    0.0000    0.0000 C   0  0  0  0  0  0  0  0  0  0  0  0
    3.6073    0.0000    0.0000 C   0  0  0  0  0  0  0  0  0  0  0  0
    3.2954    1.4672    0.0000 C   0  0  0  0  0  0  0  0  0  0  0  0
    2.4138    2.6807    0.0000 C   0  0  0  0  0  0  0  0  0  0  0  0
    1.1147    3.4307    0.0000 C   0  0  0  0  0  0  0  0  0  0  0  0
   -0.3771    3.5875    0.0000 C   0  0  0  0  0  0  0  0  0  0  0  0
   -1.8037    3.1240    0.0000 C   0  0  0  0  0  0  0  0  0  0  0  0
   -2.9184    2.1203    0.0000 C   0  0  0  0  0  0  0  0  0  0  0  0
   -3.5285    0.7500    0.0000 C   0  0  0  0  0  0  0  0  0  0  0  0
   -3.5285   -0.7500    0.0000 C   0  0  0  0  0  0  0  0  0  0  0  0
   -2.9184   -2.1203    0.0000 C   0  0  0  0  0  0  0  0  0  0  0  0
   -1.8037   -3.1240    0.0000 C   0  0  0  0  0  0  0  0  0  0  0  0
   -0.3771   -3.5875    0.0000 C   0  0  0  0  0  0  0  0  0  0  0  0
    1.1147   -3.4307    0.0000 C   0  0  0  0  0  0  0  0  0  0  0  0
    2.4138   -2.6807    0.0000 C   0  0  0  0  0  0  0  0  0  0  0  0
    3.2954   -1.4672    0.0000 C   0  0  0  0  0  0  0  0  0  0  0  0
  1  2  1  0
  2  3  2  0
  3  4  1  0
  4  5  2  0
  5  6  2  0
  6  7  1  0
  7  8  2  0
  8  9  1  0
  9 10  2  0
 10 11  1  0
 11 12  2  0
 12 13  1  0
 13 14  2  0
 14 15  1  0
 15 16  2  0
 16  2  1  0
M  END
>  <Title>  (1473) 
idACEQgen8

$$$$

     RDKit          2D

 39 44  0  0  0  0  0  0  0  0999 V2000
    7.5646   -0.1148    0.0000 C   0  0  0  0  0  0  0  0  0  0  0  0
    6.0974   -0.4266    0.0000 C   0  0  0  0  0  0  0  0  0  0  0  0
    4.9826    0.5771    0.0000 C   0  0  0  0  0  0  0  0  0  0  0  0
    3.6836   -0.1729    0.0000 C   0  0  0  0  0  0  0  0  0  0  0  0
    3.9955   -1.6402    0.0000 C   0  0  0  0  0  0  0  0  0  0  0  0
    2.9918   -2.7549    0.0000 C   0  0  0  0  0  0  0  0  0  0  0  0
    3.3037   -4.2221    0.0000 N   0  0  0  0  0  0  0  0  0  0  0  0
    2.0046   -4.9721    0.0000 N   0  0  0  0  0  0  0  0  0  0  0  0
    0.8899   -3.9684    0.0000 N   0  0  0  0  0  0  0  0  0  0  0  0
    1.5000   -2.5981    0.0000 N   0  0  0  0  0  0  0  0  0  0  0  0
    0.7500   -1.2990    0.0000 C   0  0  0  0  0  0  0  0  0  0  0  0
    1.5000    0.0000    0.0000 C   0  0  0  0  0  0  0  0  0  0  0  0
    0.7500    1.2990    0.0000 C   0  0  0  0  0  0  0  0  0  0  0  0
   -0.7500    1.2990    0.0000 C   0  0  0  0  0  0  0  0  0  0  0  0
   -1.5000    2.5981    0.0000 C   0  0  0  0  0  0  0  0  0  0  0  0
   -2.9918    2.7549    0.0000 N   0  0  0  0  0  0  0  0  0  0  0  0
   -3.3037    4.2221    0.0000 N   0  0  0  0  0  0  0  0  0  0  0  0
   -2.0046    4.9721    0.0000 N   0  0  0  0  0  0  0  0  0  0  0  0
   -0.8899    3.9684    0.0000 N   0  0  0  0  0  0  0  0  0  0  0  0
    0.5773    4.2803    0.0000 C   0  0  0  0  0  0  0  0  0  0  0  0
    1.5810    3.1655    0.0000 C   0  0  0  0  0  0  0  0  0  0  0  0
    3.0482    3.4774    0.0000 C   0  0  0  0  0  0  0  0  0  0  0  0
    3.5118    4.9040    0.0000 C   0  0  0  0  0  0  0  0  0  0  0  0
    2.5081    6.0187    0.0000 C   0  0  0  0  0  0  0  0  0  0  0  0
    1.0409    5.7068    0.0000 C   0  0  0  0  0  0  0  0  0  0  0  0
   -1.5000    0.0000    0.0000 C   0  0  0  0  0  0  0  0  0  0  0  0
   -0.7500   -1.2990    0.0000 C   0  0  0  0  0  0  0  0  0  0  0  0
   -1.5000   -2.5981    0.0000 C   0  0  0  0  0  0  0  0  0  0  0  0
   -0.7500   -3.8971    0.0000 C   0  0  0  0  0  0  0  0  0  0  0  0
   -1.5000   -5.1962    0.0000 C   0  0  0  0  0  0  0  0  0  0  0  0
   -3.0000   -5.1962    0.0000 C   0  0  0  0  0  0  0  0  0  0  0  0
   -3.7500   -6.4952    0.0000 C   0  0  0  0  0  0  0  0  0  0  0  0
   -5.2500   -6.4952    0.0000 O   0  0  0  0  0  0  0  0  0  0  0  0
   -3.0000   -7.7942    0.0000 N   0  0  0  0  0  0  0  0  0  0  0  0
   -3.7500   -9.0933    0.0000 O   0  0  0  0  0  0  0  0  0  0  0  0
   -3.7500   -3.8971    0.0000 C   0  0  0  0  0  0  0  0  0  0  0  0
   -3.0000   -2.5981    0.0000 C   0  0  0  0  0  0  0  0  0  0  0  0
   -3.7500   -1.2990    0.0000 O   0  0  0  0  0  0  0  0  0  0  0  0
    5.4873   -1.7969    0.0000 N   0  0  0  0  0  0  0  0  0  0  0  0
  1  2  1  0
  2  3  2  0
  3  4  1  0
  4  5  2  0
  5  6  1  0
  6  7  2  0
  7  8  1  0
  8  9  2  0
  9 10  1  0
 10 11  1  0
 11 12  2  0
 12 13  1  0
 13 14  2  0
 14 15  1  0
 15 16  2  0
 16 17  1  0
 17 18  2  0
 18 19  1  0
 19 20  1  0
 20 21  2  0
 21 22  1  0
 22 23  2  0
 23 24  1  0
 24 25  2  0
 14 26  1  0
 26 27  2  0
 27 28  1  0
 28 29  2  0
 29 30  1  0
 30 31  2  0
 31 32  1  0
 32 33  2  0
 32 34  1  0
 34 35  1  0
 31 36  1  0
 36 37  1  0
 37 38  2  0
  5 39  1  0
 39  2  1  0
 10  6  1  0
 27 11  1  0
 37 28  1  0
 19 15  1  0
 25 20  1  0
M  END
>  <Title>  (1474) 
idACERgen8

$$$$

     RDKit          2D

 33 37  0  0  0  0  0  0  0  0999 V2000
    5.2500    1.2990    0.0000 C   0  0  0  0  0  0  0  0  0  0  0  0
    3.7500    1.2990    0.0000 O   0  0  0  0  0  0  0  0  0  0  0  0
    3.0000    0.0000    0.0000 C   0  0  0  0  0  0  0  0  0  0  0  0
    3.7500   -1.2990    0.0000 O   0  0  0  0  0  0  0  0  0  0  0  0
    1.5000    0.0000    0.0000 N   0  0  0  0  0  0  0  0  0  0  0  0
    0.7500    1.2990    0.0000 C   0  0  0  0  0  0  0  0  0  0  0  0
   -0.7500    1.2990    0.0000 C   0  0  0  0  0  0  0  0  0  0  0  0
   -1.5000    0.0000    0.0000 N   0  0  0  0  0  0  0  0  0  0  0  0
   -3.0000    0.0000    0.0000 C   0  0  0  0  0  0  0  0  0  0  0  0
   -3.8817   -1.2135    0.0000 N   0  0  0  0  0  0  0  0  0  0  0  0
   -5.3083   -0.7500    0.0000 N   0  0  0  0  0  0  0  0  0  0  0  0
   -5.3083    0.7500    0.0000 N   0  0  0  0  0  0  0  0  0  0  0  0
   -3.8817    1.2135    0.0000 N   0  0  0  0  0  0  0  0  0  0  0  0
   -3.4182    2.6401    0.0000 C   0  0  0  0  0  0  0  0  0  0  0  0
   -4.2998    3.8536    0.0000 C   0  0  0  0  0  0  0  0  0  0  0  0
   -3.4182    5.0672    0.0000 C   0  0  0  0  0  0  0  0  0  0  0  0
   -1.9916    4.6036    0.0000 C   0  0  0  0  0  0  0  0  0  0  0  0
   -0.7780    5.4853    0.0000 C   0  0  0  0  0  0  0  0  0  0  0  0
    0.6485    5.0218    0.0000 N   0  0  0  0  0  0  0  0  0  0  0  0
    1.5302    6.2353    0.0000 N   0  0  0  0  0  0  0  0  0  0  0  0
    0.6485    7.4488    0.0000 N   0  0  0  0  0  0  0  0  0  0  0  0
   -0.7780    6.9853    0.0000 N   0  0  0  0  0  0  0  0  0  0  0  0
   -1.9916    7.8670    0.0000 C   0  0  0  0  0  0  0  0  0  0  0  0
   -3.3619    7.2569    0.0000 C   0  0  0  0  0  0  0  0  0  0  0  0
   -4.5754    8.1386    0.0000 C   0  0  0  0  0  0  0  0  0  0  0  0
   -4.4186    9.6303    0.0000 C   0  0  0  0  0  0  0  0  0  0  0  0
   -3.0483   10.2405    0.0000 C   0  0  0  0  0  0  0  0  0  0  0  0
   -1.8348    9.3588    0.0000 C   0  0  0  0  0  0  0  0  0  0  0  0
   -1.9916    3.1036    0.0000 C   0  0  0  0  0  0  0  0  0  0  0  0
   -0.7780    2.2220    0.0000 O   0  0  0  0  0  0  0  0  0  0  0  0
   -0.7500   -1.2990    0.0000 C   0  0  0  0  0  0  0  0  0  0  0  0
   -1.5000   -2.5981    0.0000 O   0  0  0  0  0  0  0  0  0  0  0  0
    0.7500   -1.2990    0.0000 N   0  0  0  0  0  0  0  0  0  0  0  0
  1  2  1  0
  2  3  1  0
  3  4  2  0
  3  5  1  0
  5  6  1  0
  6  7  1  0
  7  8  1  0
  8  9  1  0
  9 10  2  0
 10 11  1  0
 11 12  2  0
 12 13  1  0
 13 14  1  0
 14 15  2  0
 15 16  1  0
 16 17  2  0
 17 18  1  0
 18 19  2  0
 19 20  1  0
 20 21  2  0
 21 22  1  0
 22 23  1  0
 23 24  2  0
 24 25  1  0
 25 26  2  0
 26 27  1  0
 27 28  2  0
 17 29  1  0
 29 30  2  0
  8 31  1  0
 31 32  2  0
 31 33  1  0
 33  5  1  0
 13  9  1  0
 29 14  1  0
 22 18  1  0
 28 23  1  0
M  END
>  <Title>  (1475) 
idACESgen8

$$$$

     RDKit          2D

 52 59  0  0  0  0  0  0  0  0999 V2000
    2.7540   10.2854    0.0000 C   0  0  0  0  0  0  0  0  0  0  0  0
    1.3051    9.8971    0.0000 C   0  0  0  0  0  0  0  0  0  0  0  0
    0.2444   10.9578    0.0000 C   0  0  0  0  0  0  0  0  0  0  0  0
   -1.2045   10.5696    0.0000 C   0  0  0  0  0  0  0  0  0  0  0  0
   -1.5927    9.1207    0.0000 C   0  0  0  0  0  0  0  0  0  0  0  0
   -3.0416    8.7325    0.0000 C   0  0  0  0  0  0  0  0  0  0  0  0
   -4.2073    9.6764    0.0000 N   0  0  0  0  0  0  0  0  0  0  0  0
   -5.4653    8.8595    0.0000 N   0  0  0  0  0  0  0  0  0  0  0  0
   -5.0771    7.4106    0.0000 N   0  0  0  0  0  0  0  0  0  0  0  0
   -3.5791    7.3321    0.0000 N   0  0  0  0  0  0  0  0  0  0  0  0
   -2.7622    6.0741    0.0000 C   0  0  0  0  0  0  0  0  0  0  0  0
   -1.3356    6.5376    0.0000 C   0  0  0  0  0  0  0  0  0  0  0  0
    0.1316    6.2257    0.0000 C   0  0  0  0  0  0  0  0  0  0  0  0
    1.2463    5.2220    0.0000 C   0  0  0  0  0  0  0  0  0  0  0  0
    2.5043    6.0390    0.0000 C   0  0  0  0  0  0  0  0  0  0  0  0
    3.8409    5.3580    0.0000 C   0  0  0  0  0  0  0  0  0  0  0  0
    5.0989    6.1750    0.0000 C   0  0  0  0  0  0  0  0  0  0  0  0
    5.0204    7.6729    0.0000 C   0  0  0  0  0  0  0  0  0  0  0  0
    6.2784    8.4899    0.0000 C   0  0  0  0  0  0  0  0  0  0  0  0
    3.6838    8.3539    0.0000 C   0  0  0  0  0  0  0  0  0  0  0  0
    3.6053    9.8519    0.0000 O   0  0  0  0  0  0  0  0  0  0  0  0
    2.4258    7.5370    0.0000 N   0  0  0  0  0  0  0  0  0  0  0  0
    1.7099    3.7955    0.0000 N   0  0  0  0  0  0  0  0  0  0  0  0
    1.3980    2.3282    0.0000 C   0  0  0  0  0  0  0  0  0  0  0  0
    2.7345    1.6473    0.0000 O   0  0  0  0  0  0  0  0  0  0  0  0
    0.3943    1.2135    0.0000 C   0  0  0  0  0  0  0  0  0  0  0  0
    1.2760    0.0000    0.0000 N   0  0  0  0  0  0  0  0  0  0  0  0
    0.3943   -1.2135    0.0000 N   0  0  0  0  0  0  0  0  0  0  0  0
   -1.0323   -0.7500    0.0000 N   0  0  0  0  0  0  0  0  0  0  0  0
   -1.0323    0.7500    0.0000 N   0  0  0  0  0  0  0  0  0  0  0  0
   -2.4995    1.0619    0.0000 C   0  0  0  0  0  0  0  0  0  0  0  0
   -4.0734    1.0518    0.0000 C   0  0  0  0  0  0  0  0  0  0  0  0
   -5.4099    1.7327    0.0000 C   0  0  0  0  0  0  0  0  0  0  0  0
   -5.8735    3.1593    0.0000 C   0  0  0  0  0  0  0  0  0  0  0  0
   -7.3688    3.2770    0.0000 C   0  0  0  0  0  0  0  0  0  0  0  0
   -8.1526    4.5560    0.0000 N   0  0  0  0  0  0  0  0  0  0  0  0
   -9.6111    4.2058    0.0000 N   0  0  0  0  0  0  0  0  0  0  0  0
   -9.7288    2.7104    0.0000 N   0  0  0  0  0  0  0  0  0  0  0  0
   -8.3430    2.1364    0.0000 N   0  0  0  0  0  0  0  0  0  0  0  0
   -7.9928    0.6779    0.0000 C   0  0  0  0  0  0  0  0  0  0  0  0
   -6.5546    0.2518    0.0000 C   0  0  0  0  0  0  0  0  0  0  0  0
   -6.2044   -1.2067    0.0000 C   0  0  0  0  0  0  0  0  0  0  0  0
   -7.2925   -2.2393    0.0000 C   0  0  0  0  0  0  0  0  0  0  0  0
   -8.7307   -1.8132    0.0000 C   0  0  0  0  0  0  0  0  0  0  0  0
   -9.0809   -0.3547    0.0000 C   0  0  0  0  0  0  0  0  0  0  0  0
   -5.1925    4.4958    0.0000 C   0  0  0  0  0  0  0  0  0  0  0  0
   -3.7659    4.9594    0.0000 C   0  0  0  0  0  0  0  0  0  0  0  0
   -4.0778    3.4921    0.0000 N   0  0  0  0  0  0  0  0  0  0  0  0
   -3.6142    2.0656    0.0000 C   0  0  0  0  0  0  0  0  0  0  0  0
   -4.5448    1.7452    0.0000 O   0  0  0  0  0  0  0  0  0  0  0  0
   -0.5320    8.0600    0.0000 C   0  0  0  0  0  0  0  0  0  0  0  0
    0.9168    8.4483    0.0000 C   0  0  0  0  0  0  0  0  0  0  0  0
  1  2  1  0
  2  3  2  0
  3  4  1  0
  4  5  2  0
  5  6  1  0
  6  7  2  0
  7  8  1  0
  8  9  2  0
  9 10  1  0
 10 11  1  0
 11 12  2  0
 12 13  1  0
 13 14  2  0
 14 15  1  0
 15 16  2  0
 16 17  1  0
 17 18  2  0
 18 19  1  0
 18 20  1  0
 20 21  2  0
 20 22  1  0
 14 23  1  0
 23 24  1  0
 24 25  2  0
 24 26  1  0
 26 27  2  0
 27 28  1  0
 28 29  2  0
 29 30  1  0
 30 31  1  0
 31 32  2  0
 32 33  1  0
 33 34  2  0
 34 35  1  0
 35 36  2  0
 36 37  1  0
 37 38  2  0
 38 39  1  0
 39 40  1  0
 40 41  2  0
 41 42  1  0
 42 43  2  0
 43 44  1  0
 44 45  2  0
 34 46  1  0
 46 47  2  0
 47 48  1  0
 48 49  1  0
 49 50  2  0
  5 51  1  0
 51 52  2  0
 52  2  1  0
 10  6  1  0
 47 11  1  0
 22 15  1  0
 30 26  1  0
 49 31  1  0
 39 35  1  0
 45 40  1  0
M  END
>  <Title>  (1476) 
idACETgen8

$$$$

     RDKit          2D

 62 71  0  0  0  0  0  0  0  0999 V2000
    6.9199   -8.0034    0.0000 C   0  0  0  0  0  0  0  0  0  0  0  0
    5.4933   -8.4669    0.0000 C   0  0  0  0  0  0  0  0  0  0  0  0
    5.1814   -9.9342    0.0000 C   0  0  0  0  0  0  0  0  0  0  0  0
    3.7548  -10.3977    0.0000 C   0  0  0  0  0  0  0  0  0  0  0  0
    2.6401   -9.3940    0.0000 C   0  0  0  0  0  0  0  0  0  0  0  0
    1.2135   -9.8575    0.0000 C   0  0  0  0  0  0  0  0  0  0  0  0
    0.7500  -11.2841    0.0000 N   0  0  0  0  0  0  0  0  0  0  0  0
   -0.7500  -11.2841    0.0000 N   0  0  0  0  0  0  0  0  0  0  0  0
   -1.2135   -9.8575    0.0000 N   0  0  0  0  0  0  0  0  0  0  0  0
    0.0000   -8.9758    0.0000 N   0  0  0  0  0  0  0  0  0  0  0  0
    0.0000   -7.4758    0.0000 C   0  0  0  0  0  0  0  0  0  0  0  0
    1.4564   -7.1169    0.0000 C   0  0  0  0  0  0  0  0  0  0  0  0
    2.5792   -6.1222    0.0000 C   0  0  0  0  0  0  0  0  0  0  0  0
    3.1111   -4.7197    0.0000 C   0  0  0  0  0  0  0  0  0  0  0  0
    4.6001   -4.9005    0.0000 C   0  0  0  0  0  0  0  0  0  0  0  0
    5.1881   -6.2804    0.0000 C   0  0  0  0  0  0  0  0  0  0  0  0
    6.6772   -6.4612    0.0000 C   0  0  0  0  0  0  0  0  0  0  0  0
    7.5783   -5.2621    0.0000 C   0  0  0  0  0  0  0  0  0  0  0  0
    9.0673   -5.4429    0.0000 C   0  0  0  0  0  0  0  0  0  0  0  0
    6.9903   -3.8821    0.0000 C   0  0  0  0  0  0  0  0  0  0  0  0
    5.5013   -3.7013    0.0000 C   0  0  0  0  0  0  0  0  0  0  0  0
    4.9133   -2.3213    0.0000 C   0  0  0  0  0  0  0  0  0  0  0  0
    3.4242   -2.1405    0.0000 C   0  0  0  0  0  0  0  0  0  0  0  0
    2.8363   -0.7606    0.0000 C   0  0  0  0  0  0  0  0  0  0  0  0
    3.7374    0.4386    0.0000 C   0  0  0  0  0  0  0  0  0  0  0  0
    3.1495    1.8186    0.0000 C   0  0  0  0  0  0  0  0  0  0  0  0
    5.2265    0.2578    0.0000 C   0  0  0  0  0  0  0  0  0  0  0  0
    6.1276    1.4570    0.0000 O   0  0  0  0  0  0  0  0  0  0  0  0
    5.8144   -1.1222    0.0000 N   0  0  0  0  0  0  0  0  0  0  0  0
    2.9303   -3.2306    0.0000 C   0  0  0  0  0  0  0  0  0  0  0  0
    4.3676   -2.8017    0.0000 C   0  0  0  0  0  0  0  0  0  0  0  0
    4.4039   -1.3021    0.0000 N   0  0  0  0  0  0  0  0  0  0  0  0
    2.9889   -0.8043    0.0000 N   0  0  0  0  0  0  0  0  0  0  0  0
    2.0782   -1.9961    0.0000 N   0  0  0  0  0  0  0  0  0  0  0  0
    0.7500   -1.2990    0.0000 C   0  0  0  0  0  0  0  0  0  0  0  0
    1.5000    0.0000    0.0000 C   0  0  0  0  0  0  0  0  0  0  0  0
    0.7500    1.2990    0.0000 C   0  0  0  0  0  0  0  0  0  0  0  0
   -0.7500    1.2990    0.0000 C   0  0  0  0  0  0  0  0  0  0  0  0
   -1.5000    0.0000    0.0000 C   0  0  0  0  0  0  0  0  0  0  0  0
   -0.7500   -1.2990    0.0000 C   0  0  0  0  0  0  0  0  0  0  0  0
   -2.0782   -1.9961    0.0000 C   0  0  0  0  0  0  0  0  0  0  0  0
   -2.7212   -0.6409    0.0000 C   0  0  0  0  0  0  0  0  0  0  0  0
   -4.2164   -0.5202    0.0000 C   0  0  0  0  0  0  0  0  0  0  0  0
   -5.0685   -1.7547    0.0000 C   0  0  0  0  0  0  0  0  0  0  0  0
   -4.4254   -3.1099    0.0000 C   0  0  0  0  0  0  0  0  0  0  0  0
   -2.9303   -3.2306    0.0000 C   0  0  0  0  0  0  0  0  0  0  0  0
   -3.1111   -4.7197    0.0000 C   0  0  0  0  0  0  0  0  0  0  0  0
   -4.5042   -5.2757    0.0000 C   0  0  0  0  0  0  0  0  0  0  0  0
   -4.9381   -6.7116    0.0000 C   0  0  0  0  0  0  0  0  0  0  0  0
   -4.0860   -7.9461    0.0000 C   0  0  0  0  0  0  0  0  0  0  0  0
   -4.8285   -9.2494    0.0000 C   0  0  0  0  0  0  0  0  0  0  0  0
   -6.3285   -9.2580    0.0000 C   0  0  0  0  0  0  0  0  0  0  0  0
   -7.0710  -10.5613    0.0000 C   0  0  0  0  0  0  0  0  0  0  0  0
   -6.3135  -11.8560    0.0000 C   0  0  0  0  0  0  0  0  0  0  0  0
   -4.8136  -11.8474    0.0000 C   0  0  0  0  0  0  0  0  0  0  0  0
   -4.0711  -10.5441    0.0000 C   0  0  0  0  0  0  0  0  0  0  0  0
   -2.5896   -8.0495    0.0000 C   0  0  0  0  0  0  0  0  0  0  0  0
   -1.4564   -7.1169    0.0000 C   0  0  0  0  0  0  0  0  0  0  0  0
   -2.5792   -6.1222    0.0000 C   0  0  0  0  0  0  0  0  0  0  0  0
   -3.8137   -6.9743    0.0000 O   0  0  0  0  0  0  0  0  0  0  0  0
    2.9520   -7.9268    0.0000 N   0  0  0  0  0  0  0  0  0  0  0  0
    4.3786   -7.4632    0.0000 C   0  0  0  0  0  0  0  0  0  0  0  0
  1  2  1  0
  2  3  2  0
  3  4  1  0
  4  5  2  0
  5  6  1  0
  6  7  2  0
  7  8  1  0
  8  9  2  0
  9 10  1  0
 10 11  1  0
 11 12  2  0
 12 13  1  0
 13 14  2  0
 14 15  1  0
 15 16  2  0
 16 17  1  0
 17 18  2  0
 18 19  1  0
 18 20  1  0
 20 21  2  0
 21 22  1  0
 22 23  2  0
 23 24  1  0
 24 25  2  0
 25 26  1  0
 25 27  1  0
 27 28  2  0
 27 29  1  0
 14 30  1  0
 30 31  2  0
 31 32  1  0
 32 33  2  0
 33 34  1  0
 34 35  1  0
 35 36  2  0
 36 37  1  0
 37 38  2  0
 38 39  1  0
 39 40  2  0
 40 41  1  0
 41 42  2  0
 42 43  1  0
 43 44  2  0
 44 45  1  0
 45 46  2  0
 46 47  1  0
 47 48  2  0
 48 49  1  0
 49 50  2  0
 50 51  1  0
 51 52  2  0
 52 53  1  0
 53 54  2  0
 54 55  1  0
 55 56  2  0
 50 57  1  0
 57 58  2  0
 58 59  1  0
 59 60  2  0
  5 61  1  0
 61 62  1  0
 62  2  1  0
 10  6  1  0
 58 11  1  0
 21 15  1  0
 29 22  1  0
 34 30  1  0
 40 35  1  0
 46 41  1  0
 59 47  1  0
 56 51  1  0
M  END
>  <Title>  (1477) 
idACEUgen8

$$$$

     RDKit          2D

 24 25  0  0  0  0  0  0  0  0999 V2000
    8.5161   -5.1961    0.0000 C   0  0  0  0  0  0  0  0  0  0  0  0
    8.0339   -3.7757    0.0000 O   0  0  0  0  0  0  0  0  0  0  0  0
    6.5628   -3.4831    0.0000 C   0  0  0  0  0  0  0  0  0  0  0  0
    6.2701   -2.0119    0.0000 C   0  0  0  0  0  0  0  0  0  0  0  0
    5.0229   -1.1785    0.0000 C   0  0  0  0  0  0  0  0  0  0  0  0
    3.5517   -1.4712    0.0000 C   0  0  0  0  0  0  0  0  0  0  0  0
    3.8444    0.0000    0.0000 C   0  0  0  0  0  0  0  0  0  0  0  0
    3.5517    1.4712    0.0000 C   0  0  0  0  0  0  0  0  0  0  0  0
    2.7184    2.7184    0.0000 C   0  0  0  0  0  0  0  0  0  0  0  0
    1.4712    3.5517    0.0000 C   0  0  0  0  0  0  0  0  0  0  0  0
    0.0000    3.8444    0.0000 C   0  0  0  0  0  0  0  0  0  0  0  0
   -1.4712    3.5517    0.0000 C   0  0  0  0  0  0  0  0  0  0  0  0
   -2.7184    2.7184    0.0000 C   0  0  0  0  0  0  0  0  0  0  0  0
   -3.5517    1.4712    0.0000 C   0  0  0  0  0  0  0  0  0  0  0  0
   -3.8444    0.0000    0.0000 C   0  0  0  0  0  0  0  0  0  0  0  0
   -3.5517   -1.4712    0.0000 C   0  0  0  0  0  0  0  0  0  0  0  0
   -2.7184   -2.7184    0.0000 C   0  0  0  0  0  0  0  0  0  0  0  0
   -1.4712   -3.5517    0.0000 C   0  0  0  0  0  0  0  0  0  0  0  0
   -0.0000   -3.8444    0.0000 C   0  0  0  0  0  0  0  0  0  0  0  0
    1.4712   -3.5517    0.0000 C   0  0  0  0  0  0  0  0  0  0  0  0
    2.7184   -2.7184    0.0000 C   0  0  0  0  0  0  0  0  0  0  0  0
    3.0110   -4.1896    0.0000 C   0  0  0  0  0  0  0  0  0  0  0  0
    4.2582   -5.0229    0.0000 C   0  0  0  0  0  0  0  0  0  0  0  0
    5.7294   -4.7303    0.0000 C   0  0  0  0  0  0  0  0  0  0  0  0
  1  2  1  0
  2  3  1  0
  3  4  2  0
  4  5  1  0
  5  6  2  0
  6  7  1  0
  7  8  2  0
  8  9  1  0
  9 10  2  0
 10 11  1  0
 11 12  2  0
 12 13  1  0
 13 14  2  0
 14 15  1  0
 15 16  2  0
 16 17  1  0
 17 18  2  0
 18 19  2  0
 19 20  1  0
 20 21  2  0
 21 22  1  0
 22 23  1  0
 23 24  1  0
 24  3  1  0
 21  6  1  0
M  END
>  <Title>  (1478) 
idACEVgen8

$$$$

     RDKit          2D

 21 21  0  0  0  0  0  0  0  0999 V2000
    6.2943    0.0000    0.0000 C   0  0  0  0  0  0  0  0  0  0  0  0
    4.7943    0.0000    0.0000 C   0  0  0  0  0  0  0  0  0  0  0  0
    4.5597   -1.4815    0.0000 C   0  0  0  0  0  0  0  0  0  0  0  0
    3.8787   -2.8180    0.0000 C   0  0  0  0  0  0  0  0  0  0  0  0
    2.8180   -3.8787    0.0000 C   0  0  0  0  0  0  0  0  0  0  0  0
    1.4815   -4.5597    0.0000 C   0  0  0  0  0  0  0  0  0  0  0  0
   -0.0000   -4.7943    0.0000 C   0  0  0  0  0  0  0  0  0  0  0  0
   -1.4815   -4.5597    0.0000 C   0  0  0  0  0  0  0  0  0  0  0  0
   -2.8180   -3.8787    0.0000 C   0  0  0  0  0  0  0  0  0  0  0  0
   -3.8787   -2.8180    0.0000 C   0  0  0  0  0  0  0  0  0  0  0  0
   -4.5597   -1.4815    0.0000 C   0  0  0  0  0  0  0  0  0  0  0  0
   -4.7943    0.0000    0.0000 C   0  0  0  0  0  0  0  0  0  0  0  0
   -4.5597    1.4815    0.0000 C   0  0  0  0  0  0  0  0  0  0  0  0
   -3.8787    2.8180    0.0000 C   0  0  0  0  0  0  0  0  0  0  0  0
   -2.8180    3.8787    0.0000 C   0  0  0  0  0  0  0  0  0  0  0  0
   -1.4815    4.5597    0.0000 C   0  0  0  0  0  0  0  0  0  0  0  0
    0.0000    4.7943    0.0000 C   0  0  0  0  0  0  0  0  0  0  0  0
    1.4815    4.5597    0.0000 C   0  0  0  0  0  0  0  0  0  0  0  0
    2.8180    3.8787    0.0000 C   0  0  0  0  0  0  0  0  0  0  0  0
    3.8787    2.8180    0.0000 C   0  0  0  0  0  0  0  0  0  0  0  0
    4.5597    1.4815    0.0000 C   0  0  0  0  0  0  0  0  0  0  0  0
  1  2  1  0
  2  3  2  0
  3  4  1  0
  4  5  2  0
  5  6  1  0
  6  7  2  0
  7  8  1  0
  8  9  2  0
  9 10  1  0
 10 11  2  0
 11 12  1  0
 12 13  2  0
 13 14  1  0
 14 15  2  0
 15 16  1  0
 16 17  2  0
 17 18  1  0
 18 19  2  0
 19 20  1  0
 20 21  2  0
 21  2  1  0
M  END
>  <Title>  (1479) 
idACEWgen8

$$$$

     RDKit          2D

 65 73  0  0  0  0  0  0  0  0999 V2000
    3.2286   -0.0000    0.0000 C   0  0  0  0  0  0  0  0  0  0  0  0
    1.7286    0.0000    0.0000 C   0  0  0  0  0  0  0  0  0  0  0  0
    1.0777    1.3515    0.0000 C   0  0  0  0  0  0  0  0  0  0  0  0
   -0.3846    1.6852    0.0000 C   0  0  0  0  0  0  0  0  0  0  0  0
   -1.5574    0.7500    0.0000 C   0  0  0  0  0  0  0  0  0  0  0  0
   -1.5574   -0.7500    0.0000 C   0  0  0  0  0  0  0  0  0  0  0  0
   -2.9088   -1.4008    0.0000 C   0  0  0  0  0  0  0  0  0  0  0  0
   -3.1767   -2.8767    0.0000 N   0  0  0  0  0  0  0  0  0  0  0  0
   -4.6631   -3.0781    0.0000 N   0  0  0  0  0  0  0  0  0  0  0  0
   -5.3139   -1.7266    0.0000 N   0  0  0  0  0  0  0  0  0  0  0  0
   -4.2297   -0.6900    0.0000 N   0  0  0  0  0  0  0  0  0  0  0  0
   -4.4311    0.7964    0.0000 C   0  0  0  0  0  0  0  0  0  0  0  0
   -3.2445    1.7140    0.0000 C   0  0  0  0  0  0  0  0  0  0  0  0
   -3.4458    3.2004    0.0000 C   0  0  0  0  0  0  0  0  0  0  0  0
   -4.8338    3.7693    0.0000 C   0  0  0  0  0  0  0  0  0  0  0  0
   -5.0351    5.2557    0.0000 C   0  0  0  0  0  0  0  0  0  0  0  0
   -6.4231    5.8245    0.0000 O   0  0  0  0  0  0  0  0  0  0  0  0
   -3.8485    6.1733    0.0000 N   0  0  0  0  0  0  0  0  0  0  0  0
   -4.0499    7.6597    0.0000 C   0  0  0  0  0  0  0  0  0  0  0  0
   -5.3708    8.3705    0.0000 N   0  0  0  0  0  0  0  0  0  0  0  0
   -5.1029    9.8464    0.0000 N   0  0  0  0  0  0  0  0  0  0  0  0
   -3.6165   10.0477    0.0000 N   0  0  0  0  0  0  0  0  0  0  0  0
   -2.9657    8.6963    0.0000 N   0  0  0  0  0  0  0  0  0  0  0  0
   -1.4898    8.4284    0.0000 C   0  0  0  0  0  0  0  0  0  0  0  0
   -0.9838    7.0164    0.0000 C   0  0  0  0  0  0  0  0  0  0  0  0
    0.4921    6.7485    0.0000 C   0  0  0  0  0  0  0  0  0  0  0  0
    1.4620    7.8928    0.0000 C   0  0  0  0  0  0  0  0  0  0  0  0
    0.9560    9.3049    0.0000 C   0  0  0  0  0  0  0  0  0  0  0  0
   -0.5199    9.5727    0.0000 C   0  0  0  0  0  0  0  0  0  0  0  0
   -6.0204    2.8517    0.0000 C   0  0  0  0  0  0  0  0  0  0  0  0
   -5.8190    1.3652    0.0000 C   0  0  0  0  0  0  0  0  0  0  0  0
   -7.0057    0.4477    0.0000 C   0  0  0  0  0  0  0  0  0  0  0  0
   -6.8043   -1.0388    0.0000 C   0  0  0  0  0  0  0  0  0  0  0  0
   -7.9909   -1.9564    0.0000 C   0  0  0  0  0  0  0  0  0  0  0  0
   -9.3789   -1.3875    0.0000 C   0  0  0  0  0  0  0  0  0  0  0  0
  -10.5655   -2.3051    0.0000 C   0  0  0  0  0  0  0  0  0  0  0  0
  -11.9534   -1.7363    0.0000 O   0  0  0  0  0  0  0  0  0  0  0  0
  -10.3641   -3.7915    0.0000 N   0  0  0  0  0  0  0  0  0  0  0  0
  -11.5507   -4.7091    0.0000 C   0  0  0  0  0  0  0  0  0  0  0  0
  -12.9905   -4.2885    0.0000 N   0  0  0  0  0  0  0  0  0  0  0  0
  -13.8355   -5.5278    0.0000 N   0  0  0  0  0  0  0  0  0  0  0  0
  -12.9179   -6.7144    0.0000 N   0  0  0  0  0  0  0  0  0  0  0  0
  -11.5059   -6.2084    0.0000 N   0  0  0  0  0  0  0  0  0  0  0  0
  -10.2665   -7.0534    0.0000 C   0  0  0  0  0  0  0  0  0  0  0  0
   -8.9150   -6.4026    0.0000 C   0  0  0  0  0  0  0  0  0  0  0  0
   -7.6757   -7.2476    0.0000 C   0  0  0  0  0  0  0  0  0  0  0  0
   -7.7878   -8.7434    0.0000 C   0  0  0  0  0  0  0  0  0  0  0  0
   -9.1392   -9.3942    0.0000 C   0  0  0  0  0  0  0  0  0  0  0  0
  -10.3786   -8.5492    0.0000 C   0  0  0  0  0  0  0  0  0  0  0  0
   -9.5802    0.0989    0.0000 C   0  0  0  0  0  0  0  0  0  0  0  0
   -8.3936    1.0165    0.0000 C   0  0  0  0  0  0  0  0  0  0  0  0
   -8.5950    2.5029    0.0000 C   0  0  0  0  0  0  0  0  0  0  0  0
   -7.4084    3.4205    0.0000 C   0  0  0  0  0  0  0  0  0  0  0  0
   -7.6097    4.9069    0.0000 C   0  0  0  0  0  0  0  0  0  0  0  0
   -8.9977    5.4758    0.0000 C   0  0  0  0  0  0  0  0  0  0  0  0
   -9.1990    6.9622    0.0000 C   0  0  0  0  0  0  0  0  0  0  0  0
  -10.5870    7.5310    0.0000 O   0  0  0  0  0  0  0  0  0  0  0  0
   -8.0124    7.8798    0.0000 N   0  0  0  0  0  0  0  0  0  0  0  0
   -8.2137    9.3662    0.0000 O   0  0  0  0  0  0  0  0  0  0  0  0
  -10.1843    4.5582    0.0000 N   0  0  0  0  0  0  0  0  0  0  0  0
   -9.9829    3.0718    0.0000 C   0  0  0  0  0  0  0  0  0  0  0  0
  -11.1695    2.1542    0.0000 O   0  0  0  0  0  0  0  0  0  0  0  0
   -0.3846   -1.6852    0.0000 C   0  0  0  0  0  0  0  0  0  0  0  0
   -0.7184   -3.1476    0.0000 O   0  0  0  0  0  0  0  0  0  0  0  0
    1.0777   -1.3515    0.0000 N   0  0  0  0  0  0  0  0  0  0  0  0
  1  2  1  0
  2  3  2  0
  3  4  1  0
  4  5  2  0
  5  6  2  0
  6  7  1  0
  7  8  2  0
  8  9  1  0
  9 10  2  0
 10 11  1  0
 11 12  1  0
 12 13  2  0
 13 14  1  0
 14 15  2  0
 15 16  1  0
 16 17  2  0
 16 18  1  0
 18 19  1  0
 19 20  2  0
 20 21  1  0
 21 22  2  0
 22 23  1  0
 23 24  1  0
 24 25  2  0
 25 26  1  0
 26 27  2  0
 27 28  1  0
 28 29  2  0
 15 30  1  0
 30 31  2  0
 31 32  1  0
 32 33  2  0
 33 34  1  0
 34 35  2  0
 35 36  1  0
 36 37  2  0
 36 38  1  0
 38 39  1  0
 39 40  2  0
 40 41  1  0
 41 42  2  0
 42 43  1  0
 43 44  1  0
 44 45  2  0
 45 46  1  0
 46 47  2  0
 47 48  1  0
 48 49  2  0
 35 50  1  0
 50 51  2  0
 51 52  1  0
 52 53  2  0
 53 54  1  0
 54 55  2  0
 55 56  1  0
 56 57  2  0
 56 58  1  0
 58 59  1  0
 55 60  1  0
 60 61  1  0
 61 62  2  0
  6 63  1  0
 63 64  2  0
 63 65  1  0
 65  2  1  0
 11  7  1  0
 31 12  1  0
 51 32  1  0
 61 52  1  0
 23 19  1  0
 29 24  1  0
 43 39  1  0
 49 44  1  0
M  END
>  <Title>  (1480) 
idACEXgen8

$$$$

     RDKit          2D

 11 11  0  0  0  0  0  0  0  0999 V2000
    4.2098   -1.2990    0.0000 C   0  0  0  0  0  0  0  0  0  0  0  0
    3.4598   -0.0000    0.0000 O   0  0  0  0  0  0  0  0  0  0  0  0
    1.9598    0.0000    0.0000 C   0  0  0  0  0  0  0  0  0  0  0  0
    1.3858   -1.3858    0.0000 C   0  0  0  0  0  0  0  0  0  0  0  0
   -0.0000   -1.9598    0.0000 C   0  0  0  0  0  0  0  0  0  0  0  0
   -1.3858   -1.3858    0.0000 C   0  0  0  0  0  0  0  0  0  0  0  0
   -1.9598    0.0000    0.0000 C   0  0  0  0  0  0  0  0  0  0  0  0
   -1.3858    1.3858    0.0000 C   0  0  0  0  0  0  0  0  0  0  0  0
   -2.4465    2.4465    0.0000 O   0  0  0  0  0  0  0  0  0  0  0  0
    0.0000    1.9598    0.0000 C   0  0  0  0  0  0  0  0  0  0  0  0
    1.3858    1.3858    0.0000 C   0  0  0  0  0  0  0  0  0  0  0  0
  1  2  1  0
  2  3  1  0
  3  4  2  0
  4  5  1  0
  5  6  2  0
  6  7  1  0
  7  8  2  0
  8  9  1  0
  8 10  1  0
 10 11  2  0
 11  3  1  0
M  END
>  <Title>  (1481) 
idACEYgen8

$$$$

     RDKit          2D

 15 16  0  0  0  0  0  0  0  0999 V2000
    1.6798    5.9095    0.0000 C   0  0  0  0  0  0  0  0  0  0  0  0
    1.6798    4.4095    0.0000 C   0  0  0  0  0  0  0  0  0  0  0  0
    2.9789    3.6595    0.0000 C   0  0  0  0  0  0  0  0  0  0  0  0
    2.9789    2.1595    0.0000 C   0  0  0  0  0  0  0  0  0  0  0  0
    1.6798    1.4095    0.0000 C   0  0  0  0  0  0  0  0  0  0  0  0
    2.1929    0.0000    0.0000 C   0  0  0  0  0  0  0  0  0  0  0  0
    1.6798   -1.4095    0.0000 C   0  0  0  0  0  0  0  0  0  0  0  0
    0.3808   -2.1595    0.0000 C   0  0  0  0  0  0  0  0  0  0  0  0
   -1.0964   -1.8991    0.0000 C   0  0  0  0  0  0  0  0  0  0  0  0
   -2.0606   -0.7500    0.0000 C   0  0  0  0  0  0  0  0  0  0  0  0
   -2.0606    0.7500    0.0000 C   0  0  0  0  0  0  0  0  0  0  0  0
   -1.0964    1.8991    0.0000 C   0  0  0  0  0  0  0  0  0  0  0  0
    0.3808    2.1595    0.0000 C   0  0  0  0  0  0  0  0  0  0  0  0
    0.3808    3.6595    0.0000 N   0  0  0  0  0  0  0  0  0  0  0  0
   -0.9183    4.4095    0.0000 C   0  0  0  0  0  0  0  0  0  0  0  0
  1  2  1  0
  2  3  2  0
  3  4  1  0
  4  5  2  0
  5  6  1  0
  6  7  2  0
  7  8  1  0
  8  9  2  0
  9 10  1  0
 10 11  2  0
 11 12  1  0
 12 13  2  0
 13 14  1  0
 14 15  1  0
 14  2  1  0
 13  5  1  0
M  END
>  <Title>  (1482) 
idACEZgen8

$$$$

     RDKit          2D

 23 23  0  0  0  0  0  0  0  0999 V2000
    7.0443   -1.2990    0.0000 C   0  0  0  0  0  0  0  0  0  0  0  0
    6.2943    0.0000    0.0000 O   0  0  0  0  0  0  0  0  0  0  0  0
    4.7943    0.0000    0.0000 C   0  0  0  0  0  0  0  0  0  0  0  0
    4.5597   -1.4815    0.0000 C   0  0  0  0  0  0  0  0  0  0  0  0
    3.8787   -2.8180    0.0000 C   0  0  0  0  0  0  0  0  0  0  0  0
    2.8180   -3.8787    0.0000 C   0  0  0  0  0  0  0  0  0  0  0  0
    1.4815   -4.5597    0.0000 C   0  0  0  0  0  0  0  0  0  0  0  0
   -0.0000   -4.7943    0.0000 C   0  0  0  0  0  0  0  0  0  0  0  0
   -1.4815   -4.5597    0.0000 C   0  0  0  0  0  0  0  0  0  0  0  0
   -2.8180   -3.8787    0.0000 C   0  0  0  0  0  0  0  0  0  0  0  0
   -3.8787   -2.8180    0.0000 C   0  0  0  0  0  0  0  0  0  0  0  0
   -4.5597   -1.4815    0.0000 C   0  0  0  0  0  0  0  0  0  0  0  0
   -4.7943    0.0000    0.0000 C   0  0  0  0  0  0  0  0  0  0  0  0
   -4.5597    1.4815    0.0000 C   0  0  0  0  0  0  0  0  0  0  0  0
   -3.8787    2.8180    0.0000 C   0  0  0  0  0  0  0  0  0  0  0  0
   -2.8180    3.8787    0.0000 C   0  0  0  0  0  0  0  0  0  0  0  0
   -1.4815    4.5597    0.0000 C   0  0  0  0  0  0  0  0  0  0  0  0
    0.0000    4.7943    0.0000 C   0  0  0  0  0  0  0  0  0  0  0  0
    1.4815    4.5597    0.0000 C   0  0  0  0  0  0  0  0  0  0  0  0
    2.8180    3.8787    0.0000 C   0  0  0  0  0  0  0  0  0  0  0  0
    3.8787    2.8180    0.0000 C   0  0  0  0  0  0  0  0  0  0  0  0
    4.5597    1.4815    0.0000 C   0  0  0  0  0  0  0  0  0  0  0  0
    5.9863    1.9451    0.0000 O   0  0  0  0  0  0  0  0  0  0  0  0
  1  2  1  0
  2  3  1  0
  3  4  2  0
  4  5  1  0
  5  6  2  0
  6  7  1  0
  7  8  2  0
  8  9  1  0
  9 10  2  0
 10 11  1  0
 11 12  2  0
 12 13  1  0
 13 14  2  0
 14 15  1  0
 15 16  2  0
 16 17  1  0
 17 18  2  0
 18 19  1  0
 19 20  2  0
 20 21  1  0
 21 22  2  0
 22 23  1  0
 22  3  1  0
M  END
>  <Title>  (1483) 
idACFAgen8

$$$$

     RDKit          2D

 25 27  0  0  0  0  0  0  0  0999 V2000
    6.6520    3.1342    0.0000 C   0  0  0  0  0  0  0  0  0  0  0  0
    5.9710    1.7977    0.0000 C   0  0  0  0  0  0  0  0  0  0  0  0
    6.7879    0.5397    0.0000 C   0  0  0  0  0  0  0  0  0  0  0  0
    6.1069   -0.7968    0.0000 C   0  0  0  0  0  0  0  0  0  0  0  0
    4.6090   -0.8753    0.0000 C   0  0  0  0  0  0  0  0  0  0  0  0
    3.9280   -2.2118    0.0000 C   0  0  0  0  0  0  0  0  0  0  0  0
    4.6090   -3.5483    0.0000 N   0  0  0  0  0  0  0  0  0  0  0  0
    3.5483   -4.6090    0.0000 N   0  0  0  0  0  0  0  0  0  0  0  0
    2.2118   -3.9280    0.0000 N   0  0  0  0  0  0  0  0  0  0  0  0
    2.4465   -2.4465    0.0000 N   0  0  0  0  0  0  0  0  0  0  0  0
    1.3858   -1.3858    0.0000 C   0  0  0  0  0  0  0  0  0  0  0  0
    1.9598    0.0000    0.0000 C   0  0  0  0  0  0  0  0  0  0  0  0
    1.3858    1.3858    0.0000 C   0  0  0  0  0  0  0  0  0  0  0  0
    0.0000    1.9598    0.0000 C   0  0  0  0  0  0  0  0  0  0  0  0
    0.0000    3.4598    0.0000 C   0  0  0  0  0  0  0  0  0  0  0  0
   -1.2990    4.2098    0.0000 O   0  0  0  0  0  0  0  0  0  0  0  0
    1.2990    4.2098    0.0000 N   0  0  0  0  0  0  0  0  0  0  0  0
    1.2990    5.7098    0.0000 O   0  0  0  0  0  0  0  0  0  0  0  0
   -1.3858    1.3858    0.0000 C   0  0  0  0  0  0  0  0  0  0  0  0
   -2.4465    2.4465    0.0000 C   0  0  0  0  0  0  0  0  0  0  0  0
   -1.9598    0.0000    0.0000 C   0  0  0  0  0  0  0  0  0  0  0  0
   -1.3858   -1.3858    0.0000 C   0  0  0  0  0  0  0  0  0  0  0  0
   -0.0000   -1.9598    0.0000 C   0  0  0  0  0  0  0  0  0  0  0  0
    3.7920    0.3827    0.0000 C   0  0  0  0  0  0  0  0  0  0  0  0
    4.4730    1.7192    0.0000 C   0  0  0  0  0  0  0  0  0  0  0  0
  1  2  1  0
  2  3  2  0
  3  4  1  0
  4  5  2  0
  5  6  1  0
  6  7  2  0
  7  8  1  0
  8  9  2  0
  9 10  1  0
 10 11  1  0
 11 12  2  0
 12 13  1  0
 13 14  2  0
 14 15  1  0
 15 16  2  0
 15 17  1  0
 17 18  1  0
 14 19  1  0
 19 20  1  0
 19 21  2  0
 21 22  1  0
 22 23  2  0
  5 24  1  0
 24 25  2  0
 25  2  1  0
 10  6  1  0
 23 11  1  0
M  END
>  <Title>  (1484) 
idACFBgen8

$$$$

     RDKit          2D

  7  7  0  0  0  0  0  0  0  0999 V2000
    2.7760    0.0000    0.0000 C   0  0  0  0  0  0  0  0  0  0  0  0
    1.2760    0.0000    0.0000 C   0  0  0  0  0  0  0  0  0  0  0  0
    0.3943    1.2135    0.0000 C   0  0  0  0  0  0  0  0  0  0  0  0
   -1.0323    0.7500    0.0000 C   0  0  0  0  0  0  0  0  0  0  0  0
   -1.0323   -0.7500    0.0000 C   0  0  0  0  0  0  0  0  0  0  0  0
    0.3943   -1.2135    0.0000 N   0  0  0  0  0  0  0  0  0  0  0  0
    0.8578   -2.6401    0.0000 C   0  0  0  0  0  0  0  0  0  0  0  0
  1  2  1  0
  2  3  2  0
  3  4  1  0
  4  5  2  0
  5  6  1  0
  6  7  1  0
  6  2  1  0
M  END
>  <Title>  (1485) 
idACFCgen8

$$$$

     RDKit          2D

 14 15  0  0  0  0  0  0  0  0999 V2000
    4.4429   -1.2990    0.0000 C   0  0  0  0  0  0  0  0  0  0  0  0
    3.6929    0.0000    0.0000 O   0  0  0  0  0  0  0  0  0  0  0  0
    2.1929    0.0000    0.0000 C   0  0  0  0  0  0  0  0  0  0  0  0
    1.6798    1.4095    0.0000 C   0  0  0  0  0  0  0  0  0  0  0  0
    0.3808    2.1595    0.0000 C   0  0  0  0  0  0  0  0  0  0  0  0
   -1.0964    1.8991    0.0000 C   0  0  0  0  0  0  0  0  0  0  0  0
   -2.0606    0.7500    0.0000 C   0  0  0  0  0  0  0  0  0  0  0  0
   -2.0606   -0.7500    0.0000 C   0  0  0  0  0  0  0  0  0  0  0  0
   -3.2097   -1.7142    0.0000 N   0  0  0  0  0  0  0  0  0  0  0  0
   -2.2455   -2.8632    0.0000 C   0  0  0  0  0  0  0  0  0  0  0  0
   -2.3762   -4.3575    0.0000 O   0  0  0  0  0  0  0  0  0  0  0  0
   -1.0964   -1.8991    0.0000 C   0  0  0  0  0  0  0  0  0  0  0  0
    0.3808   -2.1595    0.0000 C   0  0  0  0  0  0  0  0  0  0  0  0
    1.6798   -1.4095    0.0000 C   0  0  0  0  0  0  0  0  0  0  0  0
  1  2  1  0
  2  3  1  0
  3  4  2  0
  4  5  1  0
  5  6  2  0
  6  7  1  0
  7  8  2  0
  8  9  1  0
  9 10  1  0
 10 11  2  0
 10 12  1  0
 12 13  1  0
 13 14  1  0
 14  3  1  0
 12  8  1  0
M  END
>  <Title>  (1486) 
idACFDgen8

$$$$

     RDKit          2D

 29 29  0  0  0  0  0  0  0  0999 V2000
    8.1986    0.0000    0.0000 C   0  0  0  0  0  0  0  0  0  0  0  0
    6.6986    0.0000    0.0000 C   0  0  0  0  0  0  0  0  0  0  0  0
    6.5306   -1.4906    0.0000 C   0  0  0  0  0  0  0  0  0  0  0  0
    6.0352   -2.9064    0.0000 C   0  0  0  0  0  0  0  0  0  0  0  0
    5.2371   -4.1765    0.0000 C   0  0  0  0  0  0  0  0  0  0  0  0
    4.1765   -5.2371    0.0000 C   0  0  0  0  0  0  0  0  0  0  0  0
    2.9064   -6.0352    0.0000 C   0  0  0  0  0  0  0  0  0  0  0  0
    1.4906   -6.5306    0.0000 C   0  0  0  0  0  0  0  0  0  0  0  0
   -0.0000   -6.6986    0.0000 C   0  0  0  0  0  0  0  0  0  0  0  0
   -1.4906   -6.5306    0.0000 N   0  0  0  0  0  0  0  0  0  0  0  0
   -2.9064   -6.0352    0.0000 C   0  0  0  0  0  0  0  0  0  0  0  0
   -4.1765   -5.2371    0.0000 C   0  0  0  0  0  0  0  0  0  0  0  0
   -5.2371   -4.1765    0.0000 C   0  0  0  0  0  0  0  0  0  0  0  0
   -6.0352   -2.9064    0.0000 C   0  0  0  0  0  0  0  0  0  0  0  0
   -6.5306   -1.4906    0.0000 C   0  0  0  0  0  0  0  0  0  0  0  0
   -6.6986    0.0000    0.0000 C   0  0  0  0  0  0  0  0  0  0  0  0
   -6.5306    1.4906    0.0000 C   0  0  0  0  0  0  0  0  0  0  0  0
   -6.0352    2.9064    0.0000 C   0  0  0  0  0  0  0  0  0  0  0  0
   -5.2371    4.1765    0.0000 C   0  0  0  0  0  0  0  0  0  0  0  0
   -4.1765    5.2371    0.0000 C   0  0  0  0  0  0  0  0  0  0  0  0
   -2.9064    6.0352    0.0000 C   0  0  0  0  0  0  0  0  0  0  0  0
   -1.4906    6.5306    0.0000 C   0  0  0  0  0  0  0  0  0  0  0  0
    0.0000    6.6986    0.0000 C   0  0  0  0  0  0  0  0  0  0  0  0
    1.4906    6.5306    0.0000 C   0  0  0  0  0  0  0  0  0  0  0  0
    2.9064    6.0352    0.0000 C   0  0  0  0  0  0  0  0  0  0  0  0
    4.1765    5.2371    0.0000 C   0  0  0  0  0  0  0  0  0  0  0  0
    5.2371    4.1765    0.0000 C   0  0  0  0  0  0  0  0  0  0  0  0
    6.0352    2.9064    0.0000 C   0  0  0  0  0  0  0  0  0  0  0  0
    6.5306    1.4906    0.0000 C   0  0  0  0  0  0  0  0  0  0  0  0
  1  2  1  0
  2  3  2  0
  3  4  1  0
  4  5  2  0
  5  6  1  0
  6  7  2  0
  7  8  1  0
  8  9  2  0
  9 10  1  0
 10 11  2  0
 11 12  1  0
 12 13  2  0
 13 14  1  0
 14 15  2  0
 15 16  1  0
 16 17  2  0
 17 18  1  0
 18 19  2  0
 19 20  1  0
 20 21  2  0
 21 22  1  0
 22 23  2  0
 23 24  1  0
 24 25  2  0
 25 26  1  0
 26 27  2  0
 27 28  1  0
 28 29  2  0
 29  2  1  0
M  END
>  <Title>  (1487) 
idACFEgen8

$$$$

     RDKit          2D

 16 18  0  0  0  0  0  0  0  0999 V2000
   -4.0875    4.8984    0.0000 C   0  0  0  0  0  0  0  0  0  0  0  0
   -2.8154    4.1036    0.0000 C   0  0  0  0  0  0  0  0  0  0  0  0
   -1.6334    5.0270    0.0000 C   0  0  0  0  0  0  0  0  0  0  0  0
   -0.1343    4.9747    0.0000 C   0  0  0  0  0  0  0  0  0  0  0  0
    0.9804    3.9710    0.0000 C   0  0  0  0  0  0  0  0  0  0  0  0
    1.1892    2.4856    0.0000 C   0  0  0  0  0  0  0  0  0  0  0  0
    0.3943    1.2135    0.0000 N   0  0  0  0  0  0  0  0  0  0  0  0
    1.2760    0.0000    0.0000 C   0  0  0  0  0  0  0  0  0  0  0  0
    0.3943   -1.2135    0.0000 C   0  0  0  0  0  0  0  0  0  0  0  0
   -1.0323   -0.7500    0.0000 C   0  0  0  0  0  0  0  0  0  0  0  0
   -1.0323    0.7500    0.0000 C   0  0  0  0  0  0  0  0  0  0  0  0
   -2.4231    1.3119    0.0000 C   0  0  0  0  0  0  0  0  0  0  0  0
   -3.1273    2.6363    0.0000 C   0  0  0  0  0  0  0  0  0  0  0  0
    2.6664    2.2251    0.0000 C   0  0  0  0  0  0  0  0  0  0  0  0
    3.3706    3.5495    0.0000 C   0  0  0  0  0  0  0  0  0  0  0  0
    2.3286    4.6286    0.0000 C   0  0  0  0  0  0  0  0  0  0  0  0
  1  2  1  0
  2  3  2  0
  3  4  1  0
  4  5  2  0
  5  6  1  0
  6  7  1  0
  7  8  1  0
  8  9  2  0
  9 10  1  0
 10 11  2  0
 11 12  1  0
 12 13  2  0
  6 14  2  0
 14 15  1  0
 15 16  2  0
 13  2  1  0
 16  5  1  0
 11  7  1  0
M  END
>  <Title>  (1488) 
idACFFgen8

$$$$

     RDKit          2D

 32 34  0  0  0  0  0  0  0  0999 V2000
    4.3978    0.0000    0.0000 C   0  0  0  0  0  0  0  0  0  0  0  0
    2.8978    0.0000    0.0000 C   0  0  0  0  0  0  0  0  0  0  0  0
    2.5095   -1.4489    0.0000 C   0  0  0  0  0  0  0  0  0  0  0  0
    1.4489   -2.5095    0.0000 C   0  0  0  0  0  0  0  0  0  0  0  0
   -0.0000   -2.8978    0.0000 C   0  0  0  0  0  0  0  0  0  0  0  0
   -1.4489   -2.5095    0.0000 C   0  0  0  0  0  0  0  0  0  0  0  0
   -2.5095   -1.4489    0.0000 C   0  0  0  0  0  0  0  0  0  0  0  0
   -2.8978    0.0000    0.0000 C   0  0  0  0  0  0  0  0  0  0  0  0
   -2.5095    1.4489    0.0000 C   0  0  0  0  0  0  0  0  0  0  0  0
   -1.4489    2.5095    0.0000 C   0  0  0  0  0  0  0  0  0  0  0  0
    0.0000    2.8978    0.0000 C   0  0  0  0  0  0  0  0  0  0  0  0
    0.0000    4.3978    0.0000 C   0  0  0  0  0  0  0  0  0  0  0  0
   -1.2990    5.1478    0.0000 O   0  0  0  0  0  0  0  0  0  0  0  0
    1.2990    5.1478    0.0000 N   0  0  0  0  0  0  0  0  0  0  0  0
    1.2990    6.6478    0.0000 C   0  0  0  0  0  0  0  0  0  0  0  0
    0.0855    7.5295    0.0000 N   0  0  0  0  0  0  0  0  0  0  0  0
    0.5490    8.9560    0.0000 N   0  0  0  0  0  0  0  0  0  0  0  0
    2.0490    8.9560    0.0000 N   0  0  0  0  0  0  0  0  0  0  0  0
    2.5126    7.5295    0.0000 N   0  0  0  0  0  0  0  0  0  0  0  0
    3.9391    7.0659    0.0000 C   0  0  0  0  0  0  0  0  0  0  0  0
    4.2510    5.5987    0.0000 C   0  0  0  0  0  0  0  0  0  0  0  0
    5.6776    5.1352    0.0000 C   0  0  0  0  0  0  0  0  0  0  0  0
    6.7923    6.1389    0.0000 C   0  0  0  0  0  0  0  0  0  0  0  0
    8.2189    5.6754    0.0000 C   0  0  0  0  0  0  0  0  0  0  0  0
    9.3336    6.6790    0.0000 O   0  0  0  0  0  0  0  0  0  0  0  0
    8.5308    4.2081    0.0000 N   0  0  0  0  0  0  0  0  0  0  0  0
    9.9574    3.7446    0.0000 O   0  0  0  0  0  0  0  0  0  0  0  0
    6.4805    7.6061    0.0000 C   0  0  0  0  0  0  0  0  0  0  0  0
    5.0539    8.0696    0.0000 C   0  0  0  0  0  0  0  0  0  0  0  0
    1.4489    2.5095    0.0000 C   0  0  0  0  0  0  0  0  0  0  0  0
    2.1989    3.8086    0.0000 O   0  0  0  0  0  0  0  0  0  0  0  0
    2.5095    1.4489    0.0000 N   0  0  0  0  0  0  0  0  0  0  0  0
  1  2  1  0
  2  3  2  0
  3  4  1  0
  4  5  2  0
  5  6  1  0
  6  7  2  0
  7  8  1  0
  8  9  2  0
  9 10  1  0
 10 11  2  0
 11 12  1  0
 12 13  2  0
 12 14  1  0
 14 15  1  0
 15 16  2  0
 16 17  1  0
 17 18  2  0
 18 19  1  0
 19 20  1  0
 20 21  2  0
 21 22  1  0
 22 23  2  0
 23 24  1  0
 24 25  2  0
 24 26  1  0
 26 27  1  0
 23 28  1  0
 28 29  1  0
 11 30  1  0
 30 31  2  0
 30 32  1  0
 32  2  1  0
 19 15  1  0
 29 20  1  0
M  END
>  <Title>  (1489) 
idACFGgen8

$$$$

     RDKit          2D

 22 22  0  0  0  0  0  0  0  0999 V2000
    6.2943    0.0000    0.0000 C   0  0  0  0  0  0  0  0  0  0  0  0
    4.7943    0.0000    0.0000 C   0  0  0  0  0  0  0  0  0  0  0  0
    4.5597   -1.4815    0.0000 C   0  0  0  0  0  0  0  0  0  0  0  0
    3.8787   -2.8180    0.0000 C   0  0  0  0  0  0  0  0  0  0  0  0
    2.8180   -3.8787    0.0000 N   0  0  0  0  0  0  0  0  0  0  0  0
    1.4815   -4.5597    0.0000 C   0  0  0  0  0  0  0  0  0  0  0  0
   -0.0000   -4.7943    0.0000 C   0  0  0  0  0  0  0  0  0  0  0  0
   -0.0000   -6.2943    0.0000 C   0  0  0  0  0  0  0  0  0  0  0  0
   -1.4815   -4.5597    0.0000 C   0  0  0  0  0  0  0  0  0  0  0  0
   -2.8180   -3.8787    0.0000 C   0  0  0  0  0  0  0  0  0  0  0  0
   -3.8787   -2.8180    0.0000 C   0  0  0  0  0  0  0  0  0  0  0  0
   -4.5597   -1.4815    0.0000 C   0  0  0  0  0  0  0  0  0  0  0  0
   -4.7943    0.0000    0.0000 C   0  0  0  0  0  0  0  0  0  0  0  0
   -4.5597    1.4815    0.0000 C   0  0  0  0  0  0  0  0  0  0  0  0
   -3.8787    2.8180    0.0000 C   0  0  0  0  0  0  0  0  0  0  0  0
   -2.8180    3.8787    0.0000 C   0  0  0  0  0  0  0  0  0  0  0  0
   -1.4815    4.5597    0.0000 C   0  0  0  0  0  0  0  0  0  0  0  0
    0.0000    4.7943    0.0000 C   0  0  0  0  0  0  0  0  0  0  0  0
    1.4815    4.5597    0.0000 C   0  0  0  0  0  0  0  0  0  0  0  0
    2.8180    3.8787    0.0000 C   0  0  0  0  0  0  0  0  0  0  0  0
    3.8787    2.8180    0.0000 C   0  0  0  0  0  0  0  0  0  0  0  0
    4.5597    1.4815    0.0000 C   0  0  0  0  0  0  0  0  0  0  0  0
  1  2  1  0
  2  3  2  0
  3  4  1  0
  4  5  2  0
  5  6  1  0
  6  7  2  0
  7  8  1  0
  7  9  1  0
  9 10  2  0
 10 11  1  0
 11 12  2  0
 12 13  1  0
 13 14  2  0
 14 15  1  0
 15 16  2  0
 16 17  1  0
 17 18  2  0
 18 19  1  0
 19 20  2  0
 20 21  1  0
 21 22  2  0
 22  2  1  0
M  END
>  <Title>  (1490) 
idACFHgen8

$$$$

     RDKit          2D

 16 16  0  0  0  0  0  0  0  0999 V2000
    4.8705    0.0000    0.0000 C   0  0  0  0  0  0  0  0  0  0  0  0
    3.3705    0.0000    0.0000 C   0  0  0  0  0  0  0  0  0  0  0  0
    3.0367   -1.4624    0.0000 C   0  0  0  0  0  0  0  0  0  0  0  0
    2.1015   -2.6351    0.0000 C   0  0  0  0  0  0  0  0  0  0  0  0
    0.7500   -3.2860    0.0000 C   0  0  0  0  0  0  0  0  0  0  0  0
   -0.7500   -3.2860    0.0000 C   0  0  0  0  0  0  0  0  0  0  0  0
   -2.1015   -2.6351    0.0000 C   0  0  0  0  0  0  0  0  0  0  0  0
   -3.0367   -1.4624    0.0000 C   0  0  0  0  0  0  0  0  0  0  0  0
   -3.3705    0.0000    0.0000 C   0  0  0  0  0  0  0  0  0  0  0  0
   -3.0367    1.4624    0.0000 C   0  0  0  0  0  0  0  0  0  0  0  0
   -2.1015    2.6351    0.0000 C   0  0  0  0  0  0  0  0  0  0  0  0
   -0.7500    3.2860    0.0000 C   0  0  0  0  0  0  0  0  0  0  0  0
    0.7500    3.2860    0.0000 C   0  0  0  0  0  0  0  0  0  0  0  0
    1.0838    4.7484    0.0000 F   0  0  0  0  0  0  0  0  0  0  0  0
    2.1015    2.6351    0.0000 C   0  0  0  0  0  0  0  0  0  0  0  0
    3.0367    1.4624    0.0000 C   0  0  0  0  0  0  0  0  0  0  0  0
  1  2  1  0
  2  3  2  0
  3  4  1  0
  4  5  2  0
  5  6  1  0
  6  7  2  0
  7  8  1  0
  8  9  2  0
  9 10  1  0
 10 11  2  0
 11 12  1  0
 12 13  2  0
 13 14  1  0
 13 15  1  0
 15 16  2  0
 16  2  1  0
M  END
>  <Title>  (1491) 
idACFIgen8

$$$$

     RDKit          2D

 31 35  0  0  0  0  0  0  0  0999 V2000
    1.2443    4.4273    0.0000 C   0  0  0  0  0  0  0  0  0  0  0  0
    2.6147    3.8172    0.0000 C   0  0  0  0  0  0  0  0  0  0  0  0
    2.9265    2.3500    0.0000 C   0  0  0  0  0  0  0  0  0  0  0  0
    4.4183    2.1932    0.0000 C   0  0  0  0  0  0  0  0  0  0  0  0
    5.0284    3.5635    0.0000 C   0  0  0  0  0  0  0  0  0  0  0  0
    6.4956    3.8754    0.0000 C   0  0  0  0  0  0  0  0  0  0  0  0
    7.1057    5.2457    0.0000 N   0  0  0  0  0  0  0  0  0  0  0  0
    8.5975    5.0889    0.0000 N   0  0  0  0  0  0  0  0  0  0  0  0
    8.9094    3.6217    0.0000 N   0  0  0  0  0  0  0  0  0  0  0  0
    7.6104    2.8717    0.0000 N   0  0  0  0  0  0  0  0  0  0  0  0
    7.4536    1.3799    0.0000 C   0  0  0  0  0  0  0  0  0  0  0  0
    8.5683    0.3762    0.0000 C   0  0  0  0  0  0  0  0  0  0  0  0
    7.9582   -0.9941    0.0000 C   0  0  0  0  0  0  0  0  0  0  0  0
    6.4664   -0.8373    0.0000 C   0  0  0  0  0  0  0  0  0  0  0  0
    5.4627   -1.9520    0.0000 C   0  0  0  0  0  0  0  0  0  0  0  0
    5.9262   -3.3786    0.0000 O   0  0  0  0  0  0  0  0  0  0  0  0
    3.9955   -1.6402    0.0000 N   0  0  0  0  0  0  0  0  0  0  0  0
    2.9918   -2.7549    0.0000 C   0  0  0  0  0  0  0  0  0  0  0  0
    3.3037   -4.2221    0.0000 N   0  0  0  0  0  0  0  0  0  0  0  0
    2.0046   -4.9721    0.0000 N   0  0  0  0  0  0  0  0  0  0  0  0
    0.8899   -3.9684    0.0000 N   0  0  0  0  0  0  0  0  0  0  0  0
    1.5000   -2.5981    0.0000 N   0  0  0  0  0  0  0  0  0  0  0  0
    0.7500   -1.2990    0.0000 C   0  0  0  0  0  0  0  0  0  0  0  0
    1.5000    0.0000    0.0000 C   0  0  0  0  0  0  0  0  0  0  0  0
    0.7500    1.2990    0.0000 C   0  0  0  0  0  0  0  0  0  0  0  0
   -0.7500    1.2990    0.0000 C   0  0  0  0  0  0  0  0  0  0  0  0
   -1.5000    0.0000    0.0000 C   0  0  0  0  0  0  0  0  0  0  0  0
   -0.7500   -1.2990    0.0000 C   0  0  0  0  0  0  0  0  0  0  0  0
    6.1545    0.6299    0.0000 C   0  0  0  0  0  0  0  0  0  0  0  0
    4.7842    1.2400    0.0000 O   0  0  0  0  0  0  0  0  0  0  0  0
    3.9137    4.5672    0.0000 N   0  0  0  0  0  0  0  0  0  0  0  0
  1  2  1  0
  2  3  2  0
  3  4  1  0
  4  5  2  0
  5  6  1  0
  6  7  2  0
  7  8  1  0
  8  9  2  0
  9 10  1  0
 10 11  1  0
 11 12  2  0
 12 13  1  0
 13 14  2  0
 14 15  1  0
 15 16  2  0
 15 17  1  0
 17 18  1  0
 18 19  2  0
 19 20  1  0
 20 21  2  0
 21 22  1  0
 22 23  1  0
 23 24  2  0
 24 25  1  0
 25 26  2  0
 26 27  1  0
 27 28  2  0
 14 29  1  0
 29 30  2  0
  5 31  1  0
 31  2  1  0
 10  6  1  0
 29 11  1  0
 22 18  1  0
 28 23  1  0
M  END
>  <Title>  (1492) 
idACFJgen8

$$$$

     RDKit          2D

 38 43  0  0  0  0  0  0  0  0999 V2000
    3.7500   -1.2990    0.0000 C   0  0  0  0  0  0  0  0  0  0  0  0
    3.0000    0.0000    0.0000 O   0  0  0  0  0  0  0  0  0  0  0  0
    1.5000    0.0000    0.0000 C   0  0  0  0  0  0  0  0  0  0  0  0
    0.7500   -1.2990    0.0000 C   0  0  0  0  0  0  0  0  0  0  0  0
   -0.7500   -1.2990    0.0000 C   0  0  0  0  0  0  0  0  0  0  0  0
   -1.5000    0.0000    0.0000 C   0  0  0  0  0  0  0  0  0  0  0  0
   -3.0000    0.0000    0.0000 C   0  0  0  0  0  0  0  0  0  0  0  0
   -3.8817   -1.2135    0.0000 N   0  0  0  0  0  0  0  0  0  0  0  0
   -5.3083   -0.7500    0.0000 N   0  0  0  0  0  0  0  0  0  0  0  0
   -5.3083    0.7500    0.0000 N   0  0  0  0  0  0  0  0  0  0  0  0
   -3.8817    1.2135    0.0000 N   0  0  0  0  0  0  0  0  0  0  0  0
   -3.4182    2.6401    0.0000 C   0  0  0  0  0  0  0  0  0  0  0  0
   -4.2998    3.8536    0.0000 C   0  0  0  0  0  0  0  0  0  0  0  0
   -3.4182    5.0672    0.0000 C   0  0  0  0  0  0  0  0  0  0  0  0
   -1.9916    4.6036    0.0000 C   0  0  0  0  0  0  0  0  0  0  0  0
   -0.7780    5.4853    0.0000 C   0  0  0  0  0  0  0  0  0  0  0  0
    0.5923    4.8752    0.0000 O   0  0  0  0  0  0  0  0  0  0  0  0
   -0.9348    6.9771    0.0000 N   0  0  0  0  0  0  0  0  0  0  0  0
    0.2787    7.8588    0.0000 C   0  0  0  0  0  0  0  0  0  0  0  0
    1.7053    7.3952    0.0000 N   0  0  0  0  0  0  0  0  0  0  0  0
    2.5870    8.6088    0.0000 N   0  0  0  0  0  0  0  0  0  0  0  0
    1.7053    9.8223    0.0000 N   0  0  0  0  0  0  0  0  0  0  0  0
    0.2787    9.3588    0.0000 N   0  0  0  0  0  0  0  0  0  0  0  0
   -0.9348   10.2405    0.0000 C   0  0  0  0  0  0  0  0  0  0  0  0
   -2.3614    9.7769    0.0000 N   0  0  0  0  0  0  0  0  0  0  0  0
   -3.2431   10.9905    0.0000 N   0  0  0  0  0  0  0  0  0  0  0  0
   -2.3614   12.2040    0.0000 N   0  0  0  0  0  0  0  0  0  0  0  0
   -0.9348   11.7405    0.0000 N   0  0  0  0  0  0  0  0  0  0  0  0
    0.2787   12.6221    0.0000 C   0  0  0  0  0  0  0  0  0  0  0  0
    1.6490   12.0120    0.0000 C   0  0  0  0  0  0  0  0  0  0  0  0
    2.8625   12.8937    0.0000 C   0  0  0  0  0  0  0  0  0  0  0  0
    2.7057   14.3855    0.0000 C   0  0  0  0  0  0  0  0  0  0  0  0
    1.3354   14.9956    0.0000 C   0  0  0  0  0  0  0  0  0  0  0  0
    0.1219   14.1139    0.0000 C   0  0  0  0  0  0  0  0  0  0  0  0
   -1.9916    3.1036    0.0000 C   0  0  0  0  0  0  0  0  0  0  0  0
   -0.7780    2.2220    0.0000 O   0  0  0  0  0  0  0  0  0  0  0  0
   -0.7500    1.2990    0.0000 C   0  0  0  0  0  0  0  0  0  0  0  0
    0.7500    1.2990    0.0000 C   0  0  0  0  0  0  0  0  0  0  0  0
  1  2  1  0
  2  3  1  0
  3  4  2  0
  4  5  1  0
  5  6  2  0
  6  7  1  0
  7  8  2  0
  8  9  1  0
  9 10  2  0
 10 11  1  0
 11 12  1  0
 12 13  2  0
 13 14  1  0
 14 15  2  0
 15 16  1  0
 16 17  2  0
 16 18  1  0
 18 19  1  0
 19 20  2  0
 20 21  1  0
 21 22  2  0
 22 23  1  0
 23 24  1  0
 24 25  2  0
 25 26  1  0
 26 27  2  0
 27 28  1  0
 28 29  1  0
 29 30  2  0
 30 31  1  0
 31 32  2  0
 32 33  1  0
 33 34  2  0
 15 35  1  0
 35 36  2  0
  6 37  1  0
 37 38  2  0
 38  3  1  0
 11  7  1  0
 35 12  1  0
 23 19  1  0
 28 24  1  0
 34 29  1  0
M  END
>  <Title>  (1493) 
idACFKgen8

$$$$

     RDKit          2D

 11 11  0  0  0  0  0  0  0  0999 V2000
    3.9271    0.0000    0.0000 C   0  0  0  0  0  0  0  0  0  0  0  0
    2.4271    0.0000    0.0000 C   0  0  0  0  0  0  0  0  0  0  0  0
    1.9635   -1.4266    0.0000 C   0  0  0  0  0  0  0  0  0  0  0  0
    0.7500   -2.3083    0.0000 C   0  0  0  0  0  0  0  0  0  0  0  0
   -0.7500   -2.3083    0.0000 C   0  0  0  0  0  0  0  0  0  0  0  0
   -1.9635   -1.4266    0.0000 C   0  0  0  0  0  0  0  0  0  0  0  0
   -2.4271    0.0000    0.0000 C   0  0  0  0  0  0  0  0  0  0  0  0
   -1.9635    1.4266    0.0000 C   0  0  0  0  0  0  0  0  0  0  0  0
   -0.7500    2.3083    0.0000 C   0  0  0  0  0  0  0  0  0  0  0  0
    0.7500    2.3083    0.0000 C   0  0  0  0  0  0  0  0  0  0  0  0
    1.9635    1.4266    0.0000 C   0  0  0  0  0  0  0  0  0  0  0  0
  1  2  1  0
  2  3  2  0
  3  4  1  0
  4  5  2  0
  5  6  2  0
  6  7  1  0
  7  8  1  0
  8  9  1  0
  9 10  1  0
 10 11  1  0
 11  2  1  0
M  END
>  <Title>  (1494) 
idACFLgen8

$$$$

     RDKit          2D

 28 28  0  0  0  0  0  0  0  0999 V2000
    9.4960   -1.2990    0.0000 C   0  0  0  0  0  0  0  0  0  0  0  0
    7.9960   -1.2990    0.0000 O   0  0  0  0  0  0  0  0  0  0  0  0
    7.2460    0.0000    0.0000 C   0  0  0  0  0  0  0  0  0  0  0  0
    7.9960    1.2990    0.0000 O   0  0  0  0  0  0  0  0  0  0  0  0
    5.7460    0.0000    0.0000 C   0  0  0  0  0  0  0  0  0  0  0  0
    5.5502   -1.4872    0.0000 C   0  0  0  0  0  0  0  0  0  0  0  0
    4.9762   -2.8730    0.0000 C   0  0  0  0  0  0  0  0  0  0  0  0
    4.0630   -4.0630    0.0000 C   0  0  0  0  0  0  0  0  0  0  0  0
    2.8730   -4.9762    0.0000 C   0  0  0  0  0  0  0  0  0  0  0  0
    1.4872   -5.5502    0.0000 C   0  0  0  0  0  0  0  0  0  0  0  0
   -0.0000   -5.7460    0.0000 C   0  0  0  0  0  0  0  0  0  0  0  0
   -1.4872   -5.5502    0.0000 C   0  0  0  0  0  0  0  0  0  0  0  0
   -2.8730   -4.9762    0.0000 C   0  0  0  0  0  0  0  0  0  0  0  0
   -4.0630   -4.0630    0.0000 C   0  0  0  0  0  0  0  0  0  0  0  0
   -4.9762   -2.8730    0.0000 C   0  0  0  0  0  0  0  0  0  0  0  0
   -5.5502   -1.4872    0.0000 C   0  0  0  0  0  0  0  0  0  0  0  0
   -5.7460    0.0000    0.0000 C   0  0  0  0  0  0  0  0  0  0  0  0
   -5.5502    1.4872    0.0000 C   0  0  0  0  0  0  0  0  0  0  0  0
   -4.9762    2.8730    0.0000 C   0  0  0  0  0  0  0  0  0  0  0  0
   -4.0630    4.0630    0.0000 C   0  0  0  0  0  0  0  0  0  0  0  0
   -2.8730    4.9762    0.0000 C   0  0  0  0  0  0  0  0  0  0  0  0
   -1.4872    5.5502    0.0000 C   0  0  0  0  0  0  0  0  0  0  0  0
    0.0000    5.7460    0.0000 C   0  0  0  0  0  0  0  0  0  0  0  0
    1.4872    5.5502    0.0000 C   0  0  0  0  0  0  0  0  0  0  0  0
    2.8730    4.9762    0.0000 C   0  0  0  0  0  0  0  0  0  0  0  0
    4.0630    4.0630    0.0000 C   0  0  0  0  0  0  0  0  0  0  0  0
    4.9762    2.8730    0.0000 C   0  0  0  0  0  0  0  0  0  0  0  0
    5.5502    1.4872    0.0000 C   0  0  0  0  0  0  0  0  0  0  0  0
  1  2  1  0
  2  3  1  0
  3  4  2  0
  3  5  1  0
  5  6  2  0
  6  7  1  0
  7  8  2  0
  8  9  1  0
  9 10  2  0
 10 11  1  0
 11 12  2  0
 12 13  1  0
 13 14  2  0
 14 15  1  0
 15 16  2  0
 16 17  1  0
 17 18  2  0
 18 19  1  0
 19 20  2  0
 20 21  1  0
 21 22  2  0
 22 23  1  0
 23 24  2  0
 24 25  1  0
 25 26  2  0
 26 27  1  0
 27 28  2  0
 28  5  1  0
M  END
>  <Title>  (1495) 
idACFMgen8

$$$$

     RDKit          2D

 39 44  0  0  0  0  0  0  0  0999 V2000
    3.0000    0.0000    0.0000 C   0  0  0  0  0  0  0  0  0  0  0  0
    1.5000    0.0000    0.0000 C   0  0  0  0  0  0  0  0  0  0  0  0
    0.7500    1.2990    0.0000 C   0  0  0  0  0  0  0  0  0  0  0  0
   -0.7500    1.2990    0.0000 C   0  0  0  0  0  0  0  0  0  0  0  0
   -1.5000    0.0000    0.0000 C   0  0  0  0  0  0  0  0  0  0  0  0
   -3.0000    0.0000    0.0000 C   0  0  0  0  0  0  0  0  0  0  0  0
   -3.8817   -1.2135    0.0000 N   0  0  0  0  0  0  0  0  0  0  0  0
   -5.3083   -0.7500    0.0000 N   0  0  0  0  0  0  0  0  0  0  0  0
   -5.3083    0.7500    0.0000 N   0  0  0  0  0  0  0  0  0  0  0  0
   -3.8817    1.2135    0.0000 N   0  0  0  0  0  0  0  0  0  0  0  0
   -3.4182    2.6401    0.0000 C   0  0  0  0  0  0  0  0  0  0  0  0
   -1.9509    2.9520    0.0000 C   0  0  0  0  0  0  0  0  0  0  0  0
   -1.4874    4.3786    0.0000 C   0  0  0  0  0  0  0  0  0  0  0  0
   -2.4911    5.4933    0.0000 C   0  0  0  0  0  0  0  0  0  0  0  0
   -2.0276    6.9199    0.0000 C   0  0  0  0  0  0  0  0  0  0  0  0
   -3.0313    8.0346    0.0000 O   0  0  0  0  0  0  0  0  0  0  0  0
   -0.5604    7.2317    0.0000 N   0  0  0  0  0  0  0  0  0  0  0  0
   -0.0968    8.6583    0.0000 C   0  0  0  0  0  0  0  0  0  0  0  0
   -0.9785    9.8718    0.0000 N   0  0  0  0  0  0  0  0  0  0  0  0
   -0.0968   11.0854    0.0000 N   0  0  0  0  0  0  0  0  0  0  0  0
    1.3298   10.6218    0.0000 N   0  0  0  0  0  0  0  0  0  0  0  0
    1.3298    9.1218    0.0000 N   0  0  0  0  0  0  0  0  0  0  0  0
    2.5433    8.2402    0.0000 C   0  0  0  0  0  0  0  0  0  0  0  0
    2.5433    6.7402    0.0000 N   0  0  0  0  0  0  0  0  0  0  0  0
    3.9699    6.2766    0.0000 N   0  0  0  0  0  0  0  0  0  0  0  0
    4.8515    7.4902    0.0000 N   0  0  0  0  0  0  0  0  0  0  0  0
    3.9699    8.7037    0.0000 N   0  0  0  0  0  0  0  0  0  0  0  0
    4.4334   10.1303    0.0000 C   0  0  0  0  0  0  0  0  0  0  0  0
    3.4297   11.2450    0.0000 C   0  0  0  0  0  0  0  0  0  0  0  0
    3.8932   12.6716    0.0000 C   0  0  0  0  0  0  0  0  0  0  0  0
    5.3604   12.9834    0.0000 C   0  0  0  0  0  0  0  0  0  0  0  0
    6.3641   11.8687    0.0000 C   0  0  0  0  0  0  0  0  0  0  0  0
    5.9006   10.4421    0.0000 C   0  0  0  0  0  0  0  0  0  0  0  0
   -3.9583    5.1814    0.0000 C   0  0  0  0  0  0  0  0  0  0  0  0
   -4.9620    6.2961    0.0000 O   0  0  0  0  0  0  0  0  0  0  0  0
   -4.4218    3.7548    0.0000 N   0  0  0  0  0  0  0  0  0  0  0  0
   -0.7500   -1.2990    0.0000 C   0  0  0  0  0  0  0  0  0  0  0  0
   -1.5000   -2.5981    0.0000 O   0  0  0  0  0  0  0  0  0  0  0  0
    0.7500   -1.2990    0.0000 N   0  0  0  0  0  0  0  0  0  0  0  0
  1  2  1  0
  2  3  2  0
  3  4  1  0
  4  5  2  0
  5  6  1  0
  6  7  2  0
  7  8  1  0
  8  9  2  0
  9 10  1  0
 10 11  1  0
 11 12  2  0
 12 13  1  0
 13 14  2  0
 14 15  1  0
 15 16  2  0
 15 17  1  0
 17 18  1  0
 18 19  2  0
 19 20  1  0
 20 21  2  0
 21 22  1  0
 22 23  1  0
 23 24  2  0
 24 25  1  0
 25 26  2  0
 26 27  1  0
 27 28  1  0
 28 29  2  0
 29 30  1  0
 30 31  2  0
 31 32  1  0
 32 33  2  0
 14 34  1  0
 34 35  2  0
 34 36  1  0
  5 37  1  0
 37 38  2  0
 37 39  1  0
 39  2  1  0
 10  6  1  0
 36 11  1  0
 22 18  1  0
 27 23  1  0
 33 28  1  0
M  END
>  <Title>  (1496) 
idACFNgen8

$$$$

     RDKit          2D

 33 35  0  0  0  0  0  0  0  0999 V2000
    7.3435    5.2013    0.0000 C   0  0  0  0  0  0  0  0  0  0  0  0
    6.4985    3.9620    0.0000 C   0  0  0  0  0  0  0  0  0  0  0  0
    7.1494    2.6105    0.0000 C   0  0  0  0  0  0  0  0  0  0  0  0
    6.3044    1.3712    0.0000 C   0  0  0  0  0  0  0  0  0  0  0  0
    4.8086    1.4832    0.0000 C   0  0  0  0  0  0  0  0  0  0  0  0
    5.0321    0.0000    0.0000 C   0  0  0  0  0  0  0  0  0  0  0  0
    4.8086   -1.4832    0.0000 C   0  0  0  0  0  0  0  0  0  0  0  0
    4.1577   -2.8347    0.0000 C   0  0  0  0  0  0  0  0  0  0  0  0
    3.1375   -3.9343    0.0000 C   0  0  0  0  0  0  0  0  0  0  0  0
    1.8384   -4.6843    0.0000 C   0  0  0  0  0  0  0  0  0  0  0  0
    0.3761   -5.0181    0.0000 C   0  0  0  0  0  0  0  0  0  0  0  0
   -1.1198   -4.9060    0.0000 C   0  0  0  0  0  0  0  0  0  0  0  0
   -2.5161   -4.3580    0.0000 C   0  0  0  0  0  0  0  0  0  0  0  0
   -3.6888   -3.4227    0.0000 C   0  0  0  0  0  0  0  0  0  0  0  0
   -4.5338   -2.1834    0.0000 C   0  0  0  0  0  0  0  0  0  0  0  0
   -4.9759   -0.7500    0.0000 C   0  0  0  0  0  0  0  0  0  0  0  0
   -4.9759    0.7500    0.0000 C   0  0  0  0  0  0  0  0  0  0  0  0
   -4.5338    2.1834    0.0000 C   0  0  0  0  0  0  0  0  0  0  0  0
   -3.6888    3.4227    0.0000 C   0  0  0  0  0  0  0  0  0  0  0  0
   -2.5161    4.3580    0.0000 C   0  0  0  0  0  0  0  0  0  0  0  0
   -1.1198    4.9060    0.0000 C   0  0  0  0  0  0  0  0  0  0  0  0
    0.3761    5.0181    0.0000 C   0  0  0  0  0  0  0  0  0  0  0  0
    1.8384    4.6843    0.0000 C   0  0  0  0  0  0  0  0  0  0  0  0
    3.1375    3.9343    0.0000 C   0  0  0  0  0  0  0  0  0  0  0  0
    4.1577    2.8347    0.0000 C   0  0  0  0  0  0  0  0  0  0  0  0
    5.0027    4.0741    0.0000 C   0  0  0  0  0  0  0  0  0  0  0  0
    4.3519    5.4255    0.0000 C   0  0  0  0  0  0  0  0  0  0  0  0
    2.8561    5.5376    0.0000 C   0  0  0  0  0  0  0  0  0  0  0  0
    2.2053    6.8891    0.0000 C   0  0  0  0  0  0  0  0  0  0  0  0
    3.0502    8.1284    0.0000 C   0  0  0  0  0  0  0  0  0  0  0  0
    4.5460    8.0163    0.0000 C   0  0  0  0  0  0  0  0  0  0  0  0
    5.1969    6.6649    0.0000 C   0  0  0  0  0  0  0  0  0  0  0  0
    6.6927    6.5528    0.0000 O   0  0  0  0  0  0  0  0  0  0  0  0
  1  2  1  0
  2  3  2  0
  3  4  1  0
  4  5  2  0
  5  6  1  0
  6  7  2  0
  7  8  1  0
  8  9  2  0
  9 10  1  0
 10 11  2  0
 11 12  1  0
 12 13  2  0
 13 14  1  0
 14 15  2  0
 15 16  1  0
 16 17  2  0
 17 18  1  0
 18 19  2  0
 19 20  1  0
 20 21  2  0
 21 22  1  0
 22 23  2  0
 23 24  1  0
 24 25  2  0
 25 26  1  0
 26 27  1  0
 27 28  2  0
 28 29  1  0
 29 30  2  0
 30 31  1  0
 31 32  2  0
 32 33  1  0
 26  2  1  0
 32 27  1  0
 25  5  1  0
M  END
>  <Title>  (1497) 
idACFOgen8

$$$$

     RDKit          2D

 48 55  0  0  0  0  0  0  0  0999 V2000
    3.0000    0.0000    0.0000 C   0  0  0  0  0  0  0  0  0  0  0  0
    1.5000    0.0000    0.0000 C   0  0  0  0  0  0  0  0  0  0  0  0
    0.7500   -1.2990    0.0000 C   0  0  0  0  0  0  0  0  0  0  0  0
   -0.7500   -1.2990    0.0000 C   0  0  0  0  0  0  0  0  0  0  0  0
   -1.5000    0.0000    0.0000 C   0  0  0  0  0  0  0  0  0  0  0  0
   -3.0000    0.0000    0.0000 C   0  0  0  0  0  0  0  0  0  0  0  0
   -3.8817   -1.2135    0.0000 N   0  0  0  0  0  0  0  0  0  0  0  0
   -5.3083   -0.7500    0.0000 N   0  0  0  0  0  0  0  0  0  0  0  0
   -5.3083    0.7500    0.0000 N   0  0  0  0  0  0  0  0  0  0  0  0
   -3.8817    1.2135    0.0000 N   0  0  0  0  0  0  0  0  0  0  0  0
   -3.4182    2.6401    0.0000 C   0  0  0  0  0  0  0  0  0  0  0  0
   -1.9509    2.9520    0.0000 C   0  0  0  0  0  0  0  0  0  0  0  0
   -1.4874    4.3786    0.0000 C   0  0  0  0  0  0  0  0  0  0  0  0
   -2.4911    5.4933    0.0000 C   0  0  0  0  0  0  0  0  0  0  0  0
   -3.9583    5.1814    0.0000 C   0  0  0  0  0  0  0  0  0  0  0  0
   -4.4218    3.7548    0.0000 C   0  0  0  0  0  0  0  0  0  0  0  0
   -5.8891    3.4430    0.0000 C   0  0  0  0  0  0  0  0  0  0  0  0
   -6.4992    2.0726    0.0000 N   0  0  0  0  0  0  0  0  0  0  0  0
   -7.9910    2.2294    0.0000 N   0  0  0  0  0  0  0  0  0  0  0  0
   -8.3028    3.6967    0.0000 N   0  0  0  0  0  0  0  0  0  0  0  0
   -7.0038    4.4467    0.0000 N   0  0  0  0  0  0  0  0  0  0  0  0
   -6.8470    5.9384    0.0000 C   0  0  0  0  0  0  0  0  0  0  0  0
   -5.4767    6.5485    0.0000 C   0  0  0  0  0  0  0  0  0  0  0  0
   -5.3199    8.0403    0.0000 C   0  0  0  0  0  0  0  0  0  0  0  0
   -6.5334    8.9220    0.0000 C   0  0  0  0  0  0  0  0  0  0  0  0
   -6.3766   10.4138    0.0000 C   0  0  0  0  0  0  0  0  0  0  0  0
   -7.4913   11.4175    0.0000 N   0  0  0  0  0  0  0  0  0  0  0  0
   -6.8812   12.7878    0.0000 N   0  0  0  0  0  0  0  0  0  0  0  0
   -5.3894   12.6310    0.0000 N   0  0  0  0  0  0  0  0  0  0  0  0
   -5.0776   11.1638    0.0000 N   0  0  0  0  0  0  0  0  0  0  0  0
   -3.7073   10.5537    0.0000 C   0  0  0  0  0  0  0  0  0  0  0  0
   -3.5505    9.0619    0.0000 C   0  0  0  0  0  0  0  0  0  0  0  0
   -2.1801    8.4518    0.0000 C   0  0  0  0  0  0  0  0  0  0  0  0
   -0.9666    9.3335    0.0000 C   0  0  0  0  0  0  0  0  0  0  0  0
   -1.1234   10.8253    0.0000 C   0  0  0  0  0  0  0  0  0  0  0  0
   -2.4937   11.4354    0.0000 C   0  0  0  0  0  0  0  0  0  0  0  0
   -7.9037    8.3119    0.0000 C   0  0  0  0  0  0  0  0  0  0  0  0
   -8.0605    6.8201    0.0000 C   0  0  0  0  0  0  0  0  0  0  0  0
   -9.4308    6.2100    0.0000 C   0  0  0  0  0  0  0  0  0  0  0  0
  -10.6444    7.0917    0.0000 C   0  0  0  0  0  0  0  0  0  0  0  0
  -12.0147    6.4816    0.0000 C   0  0  0  0  0  0  0  0  0  0  0  0
  -12.1715    4.9898    0.0000 C   0  0  0  0  0  0  0  0  0  0  0  0
  -13.5418    4.3797    0.0000 C   0  0  0  0  0  0  0  0  0  0  0  0
  -10.9579    4.1081    0.0000 C   0  0  0  0  0  0  0  0  0  0  0  0
  -11.1147    2.6163    0.0000 O   0  0  0  0  0  0  0  0  0  0  0  0
   -9.5876    4.7182    0.0000 N   0  0  0  0  0  0  0  0  0  0  0  0
   -0.7500    1.2990    0.0000 C   0  0  0  0  0  0  0  0  0  0  0  0
    0.7500    1.2990    0.0000 C   0  0  0  0  0  0  0  0  0  0  0  0
  1  2  1  0
  2  3  2  0
  3  4  1  0
  4  5  2  0
  5  6  1  0
  6  7  2  0
  7  8  1  0
  8  9  2  0
  9 10  1  0
 10 11  1  0
 11 12  1  0
 12 13  1  0
 13 14  1  0
 14 15  1  0
 15 16  1  0
 16 17  1  0
 17 18  2  0
 18 19  1  0
 19 20  2  0
 20 21  1  0
 21 22  1  0
 22 23  2  0
 23 24  1  0
 24 25  2  0
 25 26  1  0
 26 27  2  0
 27 28  1  0
 28 29  2  0
 29 30  1  0
 30 31  1  0
 31 32  2  0
 32 33  1  0
 33 34  2  0
 34 35  1  0
 35 36  2  0
 25 37  1  0
 37 38  2  0
 38 39  1  0
 39 40  2  0
 40 41  1  0
 41 42  2  0
 42 43  1  0
 42 44  1  0
 44 45  2  0
 44 46  1  0
  5 47  1  0
 47 48  2  0
 48  2  1  0
 10  6  1  0
 16 11  1  0
 21 17  1  0
 38 22  1  0
 46 39  1  0
 30 26  1  0
 36 31  1  0
M  END
>  <Title>  (1498) 
idACFPgen8

$$$$

     RDKit          2D

 24 24  0  0  0  0  0  0  0  0999 V2000
    7.5200   -1.2990    0.0000 O   0  0  0  0  0  0  0  0  0  0  0  0
    6.7700    0.0000    0.0000 C   0  0  0  0  0  0  0  0  0  0  0  0
    5.2700    0.0000    0.0000 C   0  0  0  0  0  0  0  0  0  0  0  0
    5.0565   -1.4847    0.0000 C   0  0  0  0  0  0  0  0  0  0  0  0
    4.4334   -2.8492    0.0000 C   0  0  0  0  0  0  0  0  0  0  0  0
    3.4511   -3.9828    0.0000 C   0  0  0  0  0  0  0  0  0  0  0  0
    2.1892   -4.7938    0.0000 C   0  0  0  0  0  0  0  0  0  0  0  0
    0.7500   -5.2164    0.0000 C   0  0  0  0  0  0  0  0  0  0  0  0
   -0.7500   -5.2164    0.0000 C   0  0  0  0  0  0  0  0  0  0  0  0
   -2.1892   -4.7938    0.0000 C   0  0  0  0  0  0  0  0  0  0  0  0
   -3.4511   -3.9828    0.0000 C   0  0  0  0  0  0  0  0  0  0  0  0
   -4.4334   -2.8492    0.0000 C   0  0  0  0  0  0  0  0  0  0  0  0
   -5.0565   -1.4847    0.0000 C   0  0  0  0  0  0  0  0  0  0  0  0
   -5.2700    0.0000    0.0000 C   0  0  0  0  0  0  0  0  0  0  0  0
   -5.0565    1.4847    0.0000 C   0  0  0  0  0  0  0  0  0  0  0  0
   -4.4334    2.8492    0.0000 C   0  0  0  0  0  0  0  0  0  0  0  0
   -3.4511    3.9828    0.0000 C   0  0  0  0  0  0  0  0  0  0  0  0
   -2.1892    4.7938    0.0000 C   0  0  0  0  0  0  0  0  0  0  0  0
   -0.7500    5.2164    0.0000 C   0  0  0  0  0  0  0  0  0  0  0  0
    0.7500    5.2164    0.0000 C   0  0  0  0  0  0  0  0  0  0  0  0
    2.1892    4.7938    0.0000 C   0  0  0  0  0  0  0  0  0  0  0  0
    3.4511    3.9828    0.0000 C   0  0  0  0  0  0  0  0  0  0  0  0
    4.4334    2.8492    0.0000 C   0  0  0  0  0  0  0  0  0  0  0  0
    5.0565    1.4847    0.0000 C   0  0  0  0  0  0  0  0  0  0  0  0
  1  2  1  0
  2  3  1  0
  3  4  2  0
  4  5  1  0
  5  6  2  0
  6  7  1  0
  7  8  2  0
  8  9  1  0
  9 10  2  0
 10 11  1  0
 11 12  2  0
 12 13  1  0
 13 14  2  0
 14 15  1  0
 15 16  2  0
 16 17  1  0
 17 18  2  0
 18 19  1  0
 19 20  2  0
 20 21  1  0
 21 22  2  0
 22 23  1  0
 23 24  2  0
 24  3  1  0
M  END
>  <Title>  (1499) 
idACFQgen8

$$$$

     RDKit          2D

 45 51  0  0  0  0  0  0  0  0999 V2000
    3.0000    0.0000    0.0000 C   0  0  0  0  0  0  0  0  0  0  0  0
    1.5000    0.0000    0.0000 C   0  0  0  0  0  0  0  0  0  0  0  0
    0.7500   -1.2990    0.0000 C   0  0  0  0  0  0  0  0  0  0  0  0
   -0.7500   -1.2990    0.0000 C   0  0  0  0  0  0  0  0  0  0  0  0
   -1.5000    0.0000    0.0000 C   0  0  0  0  0  0  0  0  0  0  0  0
   -3.0000    0.0000    0.0000 C   0  0  0  0  0  0  0  0  0  0  0  0
   -3.8817   -1.2135    0.0000 N   0  0  0  0  0  0  0  0  0  0  0  0
   -5.3083   -0.7500    0.0000 N   0  0  0  0  0  0  0  0  0  0  0  0
   -5.3083    0.7500    0.0000 N   0  0  0  0  0  0  0  0  0  0  0  0
   -3.8817    1.2135    0.0000 N   0  0  0  0  0  0  0  0  0  0  0  0
   -3.4182    2.6401    0.0000 C   0  0  0  0  0  0  0  0  0  0  0  0
   -1.9509    2.9520    0.0000 C   0  0  0  0  0  0  0  0  0  0  0  0
   -1.4874    4.3786    0.0000 C   0  0  0  0  0  0  0  0  0  0  0  0
   -2.4911    5.4933    0.0000 C   0  0  0  0  0  0  0  0  0  0  0  0
   -3.9583    5.1814    0.0000 C   0  0  0  0  0  0  0  0  0  0  0  0
   -4.4218    3.7548    0.0000 C   0  0  0  0  0  0  0  0  0  0  0  0
   -5.8891    3.4430    0.0000 C   0  0  0  0  0  0  0  0  0  0  0  0
   -6.4992    2.0726    0.0000 C   0  0  0  0  0  0  0  0  0  0  0  0
   -7.9910    2.2294    0.0000 C   0  0  0  0  0  0  0  0  0  0  0  0
   -8.3028    3.6967    0.0000 C   0  0  0  0  0  0  0  0  0  0  0  0
   -9.6731    4.3068    0.0000 C   0  0  0  0  0  0  0  0  0  0  0  0
  -10.8867    3.4251    0.0000 O   0  0  0  0  0  0  0  0  0  0  0  0
   -9.8299    5.7985    0.0000 N   0  0  0  0  0  0  0  0  0  0  0  0
  -11.2003    6.4086    0.0000 C   0  0  0  0  0  0  0  0  0  0  0  0
  -12.4993    5.6586    0.0000 N   0  0  0  0  0  0  0  0  0  0  0  0
  -13.6140    6.6623    0.0000 N   0  0  0  0  0  0  0  0  0  0  0  0
  -13.0039    8.0327    0.0000 N   0  0  0  0  0  0  0  0  0  0  0  0
  -11.5121    7.8759    0.0000 N   0  0  0  0  0  0  0  0  0  0  0  0
  -10.5084    8.9906    0.0000 C   0  0  0  0  0  0  0  0  0  0  0  0
  -10.8203   10.4578    0.0000 C   0  0  0  0  0  0  0  0  0  0  0  0
   -9.5213   11.2078    0.0000 C   0  0  0  0  0  0  0  0  0  0  0  0
   -8.4065   10.2041    0.0000 C   0  0  0  0  0  0  0  0  0  0  0  0
   -6.9393   10.5160    0.0000 C   0  0  0  0  0  0  0  0  0  0  0  0
   -5.9356    9.4013    0.0000 C   0  0  0  0  0  0  0  0  0  0  0  0
   -4.4684    9.7131    0.0000 C   0  0  0  0  0  0  0  0  0  0  0  0
   -4.0049   11.1397    0.0000 C   0  0  0  0  0  0  0  0  0  0  0  0
   -5.0086   12.2544    0.0000 C   0  0  0  0  0  0  0  0  0  0  0  0
   -6.4758   11.9426    0.0000 C   0  0  0  0  0  0  0  0  0  0  0  0
   -9.0166    8.8338    0.0000 C   0  0  0  0  0  0  0  0  0  0  0  0
   -8.2666    7.5348    0.0000 O   0  0  0  0  0  0  0  0  0  0  0  0
   -7.0038    4.4467    0.0000 C   0  0  0  0  0  0  0  0  0  0  0  0
   -6.8470    5.9384    0.0000 O   0  0  0  0  0  0  0  0  0  0  0  0
   -0.7500    1.2990    0.0000 N   0  0  0  0  0  0  0  0  0  0  0  0
    0.7500    1.2990    0.0000 C   0  0  0  0  0  0  0  0  0  0  0  0
    1.5000    2.5981    0.0000 O   0  0  0  0  0  0  0  0  0  0  0  0
  1  2  1  0
  2  3  2  0
  3  4  1  0
  4  5  2  0
  5  6  1  0
  6  7  2  0
  7  8  1  0
  8  9  2  0
  9 10  1  0
 10 11  1  0
 11 12  1  0
 12 13  1  0
 13 14  1  0
 14 15  1  0
 15 16  1  0
 16 17  1  0
 17 18  2  0
 18 19  1  0
 19 20  2  0
 20 21  1  0
 21 22  2  0
 21 23  1  0
 23 24  1  0
 24 25  2  0
 25 26  1  0
 26 27  2  0
 27 28  1  0
 28 29  1  0
 29 30  2  0
 30 31  1  0
 31 32  2  0
 32 33  1  0
 33 34  2  0
 34 35  1  0
 35 36  2  0
 36 37  1  0
 37 38  2  0
 32 39  1  0
 39 40  2  0
 20 41  1  0
 41 42  2  0
  5 43  1  0
 43 44  1  0
 44 45  2  0
 44  2  1  0
 10  6  1  0
 16 11  1  0
 41 17  1  0
 28 24  1  0
 39 29  1  0
 38 33  1  0
M  END
>  <Title>  (1500) 
idACFRgen8

$$$$

     RDKit          2D

 58 63  0  0  0  0  0  0  0  0999 V2000
    6.9660   -0.5787    0.0000 C   0  0  0  0  0  0  0  0  0  0  0  0
    6.1775   -1.8548    0.0000 O   0  0  0  0  0  0  0  0  0  0  0  0
    6.8883   -3.1757    0.0000 C   0  0  0  0  0  0  0  0  0  0  0  0
    8.3642   -2.9078    0.0000 C   0  0  0  0  0  0  0  0  0  0  0  0
    9.7156   -3.5586    0.0000 C   0  0  0  0  0  0  0  0  0  0  0  0
   10.4264   -4.8795    0.0000 C   0  0  0  0  0  0  0  0  0  0  0  0
   10.2251   -6.3660    0.0000 C   0  0  0  0  0  0  0  0  0  0  0  0
    9.1885   -7.4502    0.0000 C   0  0  0  0  0  0  0  0  0  0  0  0
    9.8993   -8.7711    0.0000 F   0  0  0  0  0  0  0  0  0  0  0  0
    7.7126   -7.7180    0.0000 C   0  0  0  0  0  0  0  0  0  0  0  0
    6.3611   -7.0672    0.0000 C   0  0  0  0  0  0  0  0  0  0  0  0
    5.6503   -5.7463    0.0000 C   0  0  0  0  0  0  0  0  0  0  0  0
    5.8517   -4.2598    0.0000 C   0  0  0  0  0  0  0  0  0  0  0  0
    4.5002   -3.6090    0.0000 N   0  0  0  0  0  0  0  0  0  0  0  0
    4.3881   -2.1132    0.0000 C   0  0  0  0  0  0  0  0  0  0  0  0
    3.0367   -1.4624    0.0000 C   0  0  0  0  0  0  0  0  0  0  0  0
    3.3705    0.0000    0.0000 C   0  0  0  0  0  0  0  0  0  0  0  0
    3.0367    1.4624    0.0000 C   0  0  0  0  0  0  0  0  0  0  0  0
    2.1015    2.6351    0.0000 C   0  0  0  0  0  0  0  0  0  0  0  0
    0.7500    3.2860    0.0000 C   0  0  0  0  0  0  0  0  0  0  0  0
   -0.7500    3.2860    0.0000 C   0  0  0  0  0  0  0  0  0  0  0  0
   -2.1015    2.6351    0.0000 C   0  0  0  0  0  0  0  0  0  0  0  0
   -3.0367    1.4624    0.0000 C   0  0  0  0  0  0  0  0  0  0  0  0
   -3.3705    0.0000    0.0000 C   0  0  0  0  0  0  0  0  0  0  0  0
   -3.0367   -1.4624    0.0000 C   0  0  0  0  0  0  0  0  0  0  0  0
   -2.1015   -2.6351    0.0000 C   0  0  0  0  0  0  0  0  0  0  0  0
   -0.7500   -3.2860    0.0000 C   0  0  0  0  0  0  0  0  0  0  0  0
   -1.0838   -4.7484    0.0000 C   0  0  0  0  0  0  0  0  0  0  0  0
   -0.0969   -5.8780    0.0000 C   0  0  0  0  0  0  0  0  0  0  0  0
   -0.8662   -7.1656    0.0000 N   0  0  0  0  0  0  0  0  0  0  0  0
   -2.3286   -6.8319    0.0000 N   0  0  0  0  0  0  0  0  0  0  0  0
   -2.4631   -5.3379    0.0000 N   0  0  0  0  0  0  0  0  0  0  0  0
   -3.7507   -4.5685    0.0000 C   0  0  0  0  0  0  0  0  0  0  0  0
   -3.8852   -3.0746    0.0000 C   0  0  0  0  0  0  0  0  0  0  0  0
   -5.3476   -2.7408    0.0000 C   0  0  0  0  0  0  0  0  0  0  0  0
   -6.1169   -4.0285    0.0000 C   0  0  0  0  0  0  0  0  0  0  0  0
   -7.6109   -4.1629    0.0000 C   0  0  0  0  0  0  0  0  0  0  0  0
   -8.2414   -5.5240    0.0000 O   0  0  0  0  0  0  0  0  0  0  0  0
   -8.4743   -2.9364    0.0000 N   0  0  0  0  0  0  0  0  0  0  0  0
   -9.9683   -3.0708    0.0000 C   0  0  0  0  0  0  0  0  0  0  0  0
  -10.5988   -4.4319    0.0000 O   0  0  0  0  0  0  0  0  0  0  0  0
  -10.8317   -1.8442    0.0000 N   0  0  0  0  0  0  0  0  0  0  0  0
  -12.3257   -1.9787    0.0000 C   0  0  0  0  0  0  0  0  0  0  0  0
  -13.0950   -3.2664    0.0000 N   0  0  0  0  0  0  0  0  0  0  0  0
  -14.5574   -2.9326    0.0000 N   0  0  0  0  0  0  0  0  0  0  0  0
  -14.6919   -1.4386    0.0000 N   0  0  0  0  0  0  0  0  0  0  0  0
  -13.3126   -0.8491    0.0000 N   0  0  0  0  0  0  0  0  0  0  0  0
  -12.9788    0.6133    0.0000 C   0  0  0  0  0  0  0  0  0  0  0  0
  -14.0784    1.6336    0.0000 C   0  0  0  0  0  0  0  0  0  0  0  0
  -13.7446    3.0960    0.0000 C   0  0  0  0  0  0  0  0  0  0  0  0
  -12.3112    3.5381    0.0000 C   0  0  0  0  0  0  0  0  0  0  0  0
  -11.2117    2.5178    0.0000 C   0  0  0  0  0  0  0  0  0  0  0  0
  -11.5454    1.0554    0.0000 C   0  0  0  0  0  0  0  0  0  0  0  0
   -5.1300   -5.1581    0.0000 C   0  0  0  0  0  0  0  0  0  0  0  0
   -5.4638   -6.6205    0.0000 O   0  0  0  0  0  0  0  0  0  0  0  0
    0.7500   -3.2860    0.0000 C   0  0  0  0  0  0  0  0  0  0  0  0
    1.0838   -4.7484    0.0000 O   0  0  0  0  0  0  0  0  0  0  0  0
    2.1015   -2.6351    0.0000 N   0  0  0  0  0  0  0  0  0  0  0  0
  1  2  1  0
  2  3  1  0
  3  4  2  0
  4  5  1  0
  5  6  2  0
  6  7  1  0
  7  8  2  0
  8  9  1  0
  8 10  1  0
 10 11  2  0
 11 12  1  0
 12 13  2  0
 13 14  1  0
 14 15  1  0
 15 16  1  0
 16 17  2  0
 17 18  1  0
 18 19  2  0
 19 20  1  0
 20 21  2  0
 21 22  1  0
 22 23  2  0
 23 24  1  0
 24 25  2  0
 25 26  1  0
 26 27  2  0
 27 28  1  0
 28 29  2  0
 29 30  1  0
 30 31  2  0
 31 32  1  0
 32 33  1  0
 33 34  2  0
 34 35  1  0
 35 36  2  0
 36 37  1  0
 37 38  2  0
 37 39  1  0
 39 40  1  0
 40 41  2  0
 40 42  1  0
 42 43  1  0
 43 44  2  0
 44 45  1  0
 45 46  2  0
 46 47  1  0
 47 48  1  0
 48 49  2  0
 49 50  1  0
 50 51  2  0
 51 52  1  0
 52 53  2  0
 36 54  1  0
 54 55  2  0
 27 56  1  0
 56 57  2  0
 56 58  1  0
 13  3  1  0
 58 16  1  0
 32 28  1  0
 54 33  1  0
 47 43  1  0
 53 48  1  0
M  END
>  <Title>  (1501) 
idACFSgen8

$$$$

     RDKit          2D

 42 48  0  0  0  0  0  0  0  0999 V2000
    2.2164   15.4511    0.0000 C   0  0  0  0  0  0  0  0  0  0  0  0
    1.2127   14.3364    0.0000 C   0  0  0  0  0  0  0  0  0  0  0  0
   -0.2545   14.6483    0.0000 C   0  0  0  0  0  0  0  0  0  0  0  0
   -1.2582   13.5336    0.0000 C   0  0  0  0  0  0  0  0  0  0  0  0
   -0.7947   12.1070    0.0000 C   0  0  0  0  0  0  0  0  0  0  0  0
   -1.7984   10.9923    0.0000 C   0  0  0  0  0  0  0  0  0  0  0  0
   -3.2902   11.1490    0.0000 N   0  0  0  0  0  0  0  0  0  0  0  0
   -3.9003    9.7787    0.0000 N   0  0  0  0  0  0  0  0  0  0  0  0
   -2.7855    8.7750    0.0000 N   0  0  0  0  0  0  0  0  0  0  0  0
   -1.4865    9.5250    0.0000 N   0  0  0  0  0  0  0  0  0  0  0  0
   -0.1162    8.9149    0.0000 C   0  0  0  0  0  0  0  0  0  0  0  0
    1.1829    9.6649    0.0000 C   0  0  0  0  0  0  0  0  0  0  0  0
    2.2976    8.6612    0.0000 N   0  0  0  0  0  0  0  0  0  0  0  0
    1.6875    7.2909    0.0000 N   0  0  0  0  0  0  0  0  0  0  0  0
    0.1957    7.4477    0.0000 N   0  0  0  0  0  0  0  0  0  0  0  0
   -0.8080    6.3330    0.0000 C   0  0  0  0  0  0  0  0  0  0  0  0
   -2.2752    6.6449    0.0000 C   0  0  0  0  0  0  0  0  0  0  0  0
   -3.2789    5.5301    0.0000 C   0  0  0  0  0  0  0  0  0  0  0  0
   -2.8154    4.1036    0.0000 C   0  0  0  0  0  0  0  0  0  0  0  0
   -1.6334    5.0270    0.0000 C   0  0  0  0  0  0  0  0  0  0  0  0
   -0.1343    4.9747    0.0000 C   0  0  0  0  0  0  0  0  0  0  0  0
    0.9804    3.9710    0.0000 C   0  0  0  0  0  0  0  0  0  0  0  0
    2.3048    4.6752    0.0000 O   0  0  0  0  0  0  0  0  0  0  0  0
    1.1892    2.4856    0.0000 C   0  0  0  0  0  0  0  0  0  0  0  0
    2.6564    2.1737    0.0000 C   0  0  0  0  0  0  0  0  0  0  0  0
    3.6601    3.2884    0.0000 C   0  0  0  0  0  0  0  0  0  0  0  0
    5.1273    2.9766    0.0000 C   0  0  0  0  0  0  0  0  0  0  0  0
    6.2420    3.9803    0.0000 C   0  0  0  0  0  0  0  0  0  0  0  0
    7.5411    3.2303    0.0000 C   0  0  0  0  0  0  0  0  0  0  0  0
    7.2292    1.7631    0.0000 C   0  0  0  0  0  0  0  0  0  0  0  0
    5.7374    1.6063    0.0000 C   0  0  0  0  0  0  0  0  0  0  0  0
    0.3943    1.2135    0.0000 N   0  0  0  0  0  0  0  0  0  0  0  0
    1.2760    0.0000    0.0000 N   0  0  0  0  0  0  0  0  0  0  0  0
    0.3943   -1.2135    0.0000 N   0  0  0  0  0  0  0  0  0  0  0  0
   -1.0323   -0.7500    0.0000 N   0  0  0  0  0  0  0  0  0  0  0  0
   -1.0323    0.7500    0.0000 C   0  0  0  0  0  0  0  0  0  0  0  0
   -2.4231    1.3119    0.0000 N   0  0  0  0  0  0  0  0  0  0  0  0
   -3.1273    2.6363    0.0000 C   0  0  0  0  0  0  0  0  0  0  0  0
   -4.6127    2.4276    0.0000 O   0  0  0  0  0  0  0  0  0  0  0  0
    0.6725   11.7951    0.0000 N   0  0  0  0  0  0  0  0  0  0  0  0
    1.6762   12.9098    0.0000 C   0  0  0  0  0  0  0  0  0  0  0  0
    3.1435   12.5980    0.0000 O   0  0  0  0  0  0  0  0  0  0  0  0
  1  2  1  0
  2  3  2  0
  3  4  1  0
  4  5  2  0
  5  6  1  0
  6  7  2  0
  7  8  1  0
  8  9  2  0
  9 10  1  0
 10 11  1  0
 11 12  2  0
 12 13  1  0
 13 14  2  0
 14 15  1  0
 15 16  1  0
 16 17  2  0
 17 18  1  0
 18 19  2  0
 19 20  1  0
 20 21  2  0
 21 22  1  0
 22 23  2  0
 22 24  1  0
 24 25  2  3
 25 26  1  0
 26 27  2  3
 27 28  1  0
 28 29  2  0
 29 30  1  0
 30 31  2  0
 24 32  1  0
 32 33  1  0
 33 34  2  0
 34 35  1  0
 35 36  2  0
 36 37  1  0
 37 38  1  0
 38 39  2  0
  5 40  1  0
 40 41  1  0
 41 42  2  0
 41  2  1  0
 10  6  1  0
 15 11  1  0
 21 16  1  0
 31 27  1  0
 36 32  1  0
 38 19  1  0
M  END
>  <Title>  (1502) 
idACFTgen8

$$$$

     RDKit          2D

 12 12  0  0  0  0  0  0  0  0999 V2000
    3.0000    0.0000    0.0000 C   0  0  0  0  0  0  0  0  0  0  0  0
    1.5000    0.0000    0.0000 C   0  0  0  0  0  0  0  0  0  0  0  0
    0.7500   -1.2990    0.0000 C   0  0  0  0  0  0  0  0  0  0  0  0
   -0.7500   -1.2990    0.0000 C   0  0  0  0  0  0  0  0  0  0  0  0
   -1.5000    0.0000    0.0000 C   0  0  0  0  0  0  0  0  0  0  0  0
   -0.7500    1.2990    0.0000 C   0  0  0  0  0  0  0  0  0  0  0  0
    0.7500    1.2990    0.0000 C   0  0  0  0  0  0  0  0  0  0  0  0
    1.5000    2.5981    0.0000 N   0  0  0  0  0  0  0  0  0  0  0  0
    0.7500    3.8971    0.0000 C   0  0  0  0  0  0  0  0  0  0  0  0
    1.5000    5.1962    0.0000 C   0  0  0  0  0  0  0  0  0  0  0  0
   -0.7500    3.8971    0.0000 C   0  0  0  0  0  0  0  0  0  0  0  0
   -1.5000    5.1962    0.0000 O   0  0  0  0  0  0  0  0  0  0  0  0
  1  2  1  0
  2  3  2  0
  3  4  1  0
  4  5  2  0
  5  6  1  0
  6  7  2  0
  7  8  1  0
  8  9  1  0
  9 10  1  0
  9 11  1  0
 11 12  1  0
  7  2  1  0
M  END
>  <Title>  (1503) 
idACFUgen8

$$$$

     RDKit          2D

 22 24  0  0  0  0  0  0  0  0999 V2000
    5.2500   -1.2990    0.0000 C   0  0  0  0  0  0  0  0  0  0  0  0
    3.7500   -1.2990    0.0000 C   0  0  0  0  0  0  0  0  0  0  0  0
    3.0000    0.0000    0.0000 C   0  0  0  0  0  0  0  0  0  0  0  0
    1.5000    0.0000    0.0000 C   0  0  0  0  0  0  0  0  0  0  0  0
    0.7500   -1.2990    0.0000 C   0  0  0  0  0  0  0  0  0  0  0  0
   -0.7500   -1.2990    0.0000 C   0  0  0  0  0  0  0  0  0  0  0  0
   -1.5000    0.0000    0.0000 C   0  0  0  0  0  0  0  0  0  0  0  0
   -3.0000    0.0000    0.0000 N   0  0  0  0  0  0  0  0  0  0  0  0
   -3.8817   -1.2135    0.0000 N   0  0  0  0  0  0  0  0  0  0  0  0
   -5.3083   -0.7500    0.0000 N   0  0  0  0  0  0  0  0  0  0  0  0
   -5.3083    0.7500    0.0000 N   0  0  0  0  0  0  0  0  0  0  0  0
   -3.8817    1.2135    0.0000 C   0  0  0  0  0  0  0  0  0  0  0  0
   -3.4182    2.6401    0.0000 C   0  0  0  0  0  0  0  0  0  0  0  0
   -1.9509    2.9520    0.0000 C   0  0  0  0  0  0  0  0  0  0  0  0
   -1.4874    4.3786    0.0000 C   0  0  0  0  0  0  0  0  0  0  0  0
   -2.4911    5.4933    0.0000 C   0  0  0  0  0  0  0  0  0  0  0  0
   -2.0276    6.9199    0.0000 C   0  0  0  0  0  0  0  0  0  0  0  0
   -3.9583    5.1814    0.0000 N   0  0  0  0  0  0  0  0  0  0  0  0
   -4.4218    3.7548    0.0000 C   0  0  0  0  0  0  0  0  0  0  0  0
   -5.8891    3.4430    0.0000 O   0  0  0  0  0  0  0  0  0  0  0  0
   -0.7500    1.2990    0.0000 C   0  0  0  0  0  0  0  0  0  0  0  0
    0.7500    1.2990    0.0000 C   0  0  0  0  0  0  0  0  0  0  0  0
  1  2  1  0
  2  3  1  0
  3  4  1  0
  4  5  2  0
  5  6  1  0
  6  7  2  0
  7  8  1  0
  8  9  1  0
  9 10  2  0
 10 11  1  0
 11 12  2  0
 12 13  1  0
 13 14  2  0
 14 15  1  0
 15 16  2  0
 16 17  1  0
 16 18  1  0
 18 19  1  0
 19 20  2  0
  7 21  1  0
 21 22  1  0
 22  4  1  0
 12  8  1  0
 19 13  1  0
M  END
>  <Title>  (1504) 
idACFVgen8

$$$$

     RDKit          2D

 19 19  0  0  0  0  0  0  0  0999 V2000
    5.3444    0.0000    0.0000 C   0  0  0  0  0  0  0  0  0  0  0  0
    3.8444    0.0000    0.0000 C   0  0  0  0  0  0  0  0  0  0  0  0
    3.5517   -1.4712    0.0000 C   0  0  0  0  0  0  0  0  0  0  0  0
    2.7184   -2.7184    0.0000 C   0  0  0  0  0  0  0  0  0  0  0  0
    1.4712   -3.5517    0.0000 C   0  0  0  0  0  0  0  0  0  0  0  0
   -0.0000   -3.8444    0.0000 C   0  0  0  0  0  0  0  0  0  0  0  0
   -1.4712   -3.5517    0.0000 C   0  0  0  0  0  0  0  0  0  0  0  0
   -2.0452   -4.9376    0.0000 O   0  0  0  0  0  0  0  0  0  0  0  0
   -2.7184   -2.7184    0.0000 C   0  0  0  0  0  0  0  0  0  0  0  0
   -3.7790   -3.7790    0.0000 C   0  0  0  0  0  0  0  0  0  0  0  0
   -3.5517   -1.4712    0.0000 C   0  0  0  0  0  0  0  0  0  0  0  0
   -3.8444    0.0000    0.0000 C   0  0  0  0  0  0  0  0  0  0  0  0
   -3.5517    1.4712    0.0000 C   0  0  0  0  0  0  0  0  0  0  0  0
   -2.7184    2.7184    0.0000 C   0  0  0  0  0  0  0  0  0  0  0  0
   -1.4712    3.5517    0.0000 C   0  0  0  0  0  0  0  0  0  0  0  0
    0.0000    3.8444    0.0000 C   0  0  0  0  0  0  0  0  0  0  0  0
    1.4712    3.5517    0.0000 C   0  0  0  0  0  0  0  0  0  0  0  0
    2.7184    2.7184    0.0000 C   0  0  0  0  0  0  0  0  0  0  0  0
    3.5517    1.4712    0.0000 C   0  0  0  0  0  0  0  0  0  0  0  0
  1  2  1  0
  2  3  2  0
  3  4  1  0
  4  5  2  0
  5  6  1  0
  6  7  2  0
  7  8  1  0
  7  9  1  0
  9 10  1  0
  9 11  2  0
 11 12  1  0
 12 13  2  0
 13 14  1  0
 14 15  2  0
 15 16  1  0
 16 17  2  0
 17 18  1  0
 18 19  2  0
 19  2  1  0
M  END
>  <Title>  (1505) 
idACFWgen8

$$$$

     RDKit          2D

 38 43  0  0  0  0  0  0  0  0999 V2000
    3.0000    0.0000    0.0000 C   0  0  0  0  0  0  0  0  0  0  0  0
    1.5000    0.0000    0.0000 C   0  0  0  0  0  0  0  0  0  0  0  0
    0.7500    1.2990    0.0000 C   0  0  0  0  0  0  0  0  0  0  0  0
   -0.7500    1.2990    0.0000 C   0  0  0  0  0  0  0  0  0  0  0  0
   -1.5000    0.0000    0.0000 C   0  0  0  0  0  0  0  0  0  0  0  0
   -3.0000    0.0000    0.0000 C   0  0  0  0  0  0  0  0  0  0  0  0
   -3.8817   -1.2135    0.0000 N   0  0  0  0  0  0  0  0  0  0  0  0
   -5.3083   -0.7500    0.0000 N   0  0  0  0  0  0  0  0  0  0  0  0
   -5.3083    0.7500    0.0000 N   0  0  0  0  0  0  0  0  0  0  0  0
   -3.8817    1.2135    0.0000 N   0  0  0  0  0  0  0  0  0  0  0  0
   -3.4182    2.6401    0.0000 C   0  0  0  0  0  0  0  0  0  0  0  0
   -1.9509    2.9520    0.0000 C   0  0  0  0  0  0  0  0  0  0  0  0
   -1.4874    4.3786    0.0000 C   0  0  0  0  0  0  0  0  0  0  0  0
   -2.4911    5.4933    0.0000 C   0  0  0  0  0  0  0  0  0  0  0  0
   -2.0276    6.9199    0.0000 C   0  0  0  0  0  0  0  0  0  0  0  0
   -2.9093    8.1334    0.0000 N   0  0  0  0  0  0  0  0  0  0  0  0
   -2.0276    9.3469    0.0000 N   0  0  0  0  0  0  0  0  0  0  0  0
   -0.6010    8.8834    0.0000 N   0  0  0  0  0  0  0  0  0  0  0  0
   -0.6010    7.3834    0.0000 N   0  0  0  0  0  0  0  0  0  0  0  0
    0.6125    6.5017    0.0000 C   0  0  0  0  0  0  0  0  0  0  0  0
    0.4557    5.0099    0.0000 C   0  0  0  0  0  0  0  0  0  0  0  0
    1.6693    4.1283    0.0000 C   0  0  0  0  0  0  0  0  0  0  0  0
    3.0396    4.7384    0.0000 C   0  0  0  0  0  0  0  0  0  0  0  0
    3.1964    6.2301    0.0000 N   0  0  0  0  0  0  0  0  0  0  0  0
    1.9829    7.1118    0.0000 C   0  0  0  0  0  0  0  0  0  0  0  0
   -3.9583    5.1814    0.0000 C   0  0  0  0  0  0  0  0  0  0  0  0
   -4.4218    3.7548    0.0000 C   0  0  0  0  0  0  0  0  0  0  0  0
   -5.8891    3.4430    0.0000 C   0  0  0  0  0  0  0  0  0  0  0  0
   -6.8928    4.5577    0.0000 C   0  0  0  0  0  0  0  0  0  0  0  0
   -8.3600    4.2458    0.0000 C   0  0  0  0  0  0  0  0  0  0  0  0
   -8.8235    2.8192    0.0000 C   0  0  0  0  0  0  0  0  0  0  0  0
  -10.2907    2.5074    0.0000 C   0  0  0  0  0  0  0  0  0  0  0  0
   -7.8198    1.7045    0.0000 C   0  0  0  0  0  0  0  0  0  0  0  0
   -8.2833    0.2779    0.0000 O   0  0  0  0  0  0  0  0  0  0  0  0
   -6.3526    2.0164    0.0000 N   0  0  0  0  0  0  0  0  0  0  0  0
   -0.7500   -1.2990    0.0000 C   0  0  0  0  0  0  0  0  0  0  0  0
   -1.5000   -2.5981    0.0000 O   0  0  0  0  0  0  0  0  0  0  0  0
    0.7500   -1.2990    0.0000 N   0  0  0  0  0  0  0  0  0  0  0  0
  1  2  1  0
  2  3  2  0
  3  4  1  0
  4  5  2  0
  5  6  1  0
  6  7  2  0
  7  8  1  0
  8  9  2  0
  9 10  1  0
 10 11  1  0
 11 12  2  0
 12 13  1  0
 13 14  2  0
 14 15  1  0
 15 16  2  0
 16 17  1  0
 17 18  2  0
 18 19  1  0
 19 20  1  0
 20 21  2  0
 21 22  1  0
 22 23  2  0
 23 24  1  0
 24 25  2  0
 14 26  1  0
 26 27  2  0
 27 28  1  0
 28 29  2  0
 29 30  1  0
 30 31  2  0
 31 32  1  0
 31 33  1  0
 33 34  2  0
 33 35  1  0
  5 36  1  0
 36 37  2  0
 36 38  1  0
 38  2  1  0
 10  6  1  0
 27 11  1  0
 35 28  1  0
 19 15  1  0
 25 20  1  0
M  END
>  <Title>  (1506) 
idACFXgen8

$$$$

     RDKit          2D

 35 40  0  0  0  0  0  0  0  0999 V2000
    3.0000    0.0000    0.0000 C   0  0  0  0  0  0  0  0  0  0  0  0
    1.5000    0.0000    0.0000 C   0  0  0  0  0  0  0  0  0  0  0  0
    0.7500   -1.2990    0.0000 C   0  0  0  0  0  0  0  0  0  0  0  0
   -0.7500   -1.2990    0.0000 C   0  0  0  0  0  0  0  0  0  0  0  0
   -1.5000    0.0000    0.0000 C   0  0  0  0  0  0  0  0  0  0  0  0
   -3.0000    0.0000    0.0000 C   0  0  0  0  0  0  0  0  0  0  0  0
   -3.8817   -1.2135    0.0000 C   0  0  0  0  0  0  0  0  0  0  0  0
   -5.3083   -0.7500    0.0000 N   0  0  0  0  0  0  0  0  0  0  0  0
   -5.3083    0.7500    0.0000 N   0  0  0  0  0  0  0  0  0  0  0  0
   -3.8817    1.2135    0.0000 N   0  0  0  0  0  0  0  0  0  0  0  0
   -3.4182    2.6401    0.0000 C   0  0  0  0  0  0  0  0  0  0  0  0
   -1.9509    2.9520    0.0000 C   0  0  0  0  0  0  0  0  0  0  0  0
   -1.4874    4.3786    0.0000 C   0  0  0  0  0  0  0  0  0  0  0  0
   -2.4911    5.4933    0.0000 C   0  0  0  0  0  0  0  0  0  0  0  0
   -2.0276    6.9199    0.0000 C   0  0  0  0  0  0  0  0  0  0  0  0
   -2.9093    8.1334    0.0000 N   0  0  0  0  0  0  0  0  0  0  0  0
   -2.0276    9.3469    0.0000 N   0  0  0  0  0  0  0  0  0  0  0  0
   -0.6010    8.8834    0.0000 N   0  0  0  0  0  0  0  0  0  0  0  0
   -0.6010    7.3834    0.0000 N   0  0  0  0  0  0  0  0  0  0  0  0
    0.6125    6.5017    0.0000 C   0  0  0  0  0  0  0  0  0  0  0  0
    0.4557    5.0099    0.0000 C   0  0  0  0  0  0  0  0  0  0  0  0
    1.6693    4.1283    0.0000 C   0  0  0  0  0  0  0  0  0  0  0  0
    3.0396    4.7384    0.0000 C   0  0  0  0  0  0  0  0  0  0  0  0
    3.1964    6.2301    0.0000 C   0  0  0  0  0  0  0  0  0  0  0  0
    1.9829    7.1118    0.0000 C   0  0  0  0  0  0  0  0  0  0  0  0
    2.1396    8.6036    0.0000 C   0  0  0  0  0  0  0  0  0  0  0  0
    3.5100    9.2137    0.0000 C   0  0  0  0  0  0  0  0  0  0  0  0
    3.6668   10.7055    0.0000 C   0  0  0  0  0  0  0  0  0  0  0  0
    2.4532   11.5872    0.0000 C   0  0  0  0  0  0  0  0  0  0  0  0
    1.0829   10.9771    0.0000 C   0  0  0  0  0  0  0  0  0  0  0  0
    0.9261    9.4853    0.0000 C   0  0  0  0  0  0  0  0  0  0  0  0
   -3.9583    5.1814    0.0000 C   0  0  0  0  0  0  0  0  0  0  0  0
   -4.4218    3.7548    0.0000 C   0  0  0  0  0  0  0  0  0  0  0  0
   -0.7500    1.2990    0.0000 C   0  0  0  0  0  0  0  0  0  0  0  0
    0.7500    1.2990    0.0000 C   0  0  0  0  0  0  0  0  0  0  0  0
  1  2  1  0
  2  3  2  0
  3  4  1  0
  4  5  2  0
  5  6  1  0
  6  7  2  0
  7  8  1  0
  8  9  2  0
  9 10  1  0
 10 11  1  0
 11 12  2  0
 12 13  1  0
 13 14  2  0
 14 15  1  0
 15 16  2  0
 16 17  1  0
 17 18  2  0
 18 19  1  0
 19 20  1  0
 20 21  2  0
 21 22  1  0
 22 23  2  0
 23 24  1  0
 24 25  2  0
 25 26  1  0
 26 27  2  0
 27 28  1  0
 28 29  2  0
 29 30  1  0
 30 31  2  0
 14 32  1  0
 32 33  2  0
  5 34  1  0
 34 35  2  0
 35  2  1  0
 10  6  1  0
 33 11  1  0
 19 15  1  0
 25 20  1  0
 31 26  1  0
M  END
>  <Title>  (1507) 
idACFYgen8

$$$$

     RDKit          2D

 35 35  0  0  0  0  0  0  0  0999 V2000
    9.6285    0.0000    0.0000 O   0  0  0  0  0  0  0  0  0  0  0  0
    8.1285    0.0000    0.0000 C   0  0  0  0  0  0  0  0  0  0  0  0
    7.9901   -1.4936    0.0000 C   0  0  0  0  0  0  0  0  0  0  0  0
    7.5796   -2.9363    0.0000 C   0  0  0  0  0  0  0  0  0  0  0  0
    6.9110   -4.2791    0.0000 C   0  0  0  0  0  0  0  0  0  0  0  0
    6.0070   -5.4761    0.0000 C   0  0  0  0  0  0  0  0  0  0  0  0
    4.8985   -6.4867    0.0000 C   0  0  0  0  0  0  0  0  0  0  0  0
    3.6232   -7.2763    0.0000 C   0  0  0  0  0  0  0  0  0  0  0  0
    2.2245   -7.8182    0.0000 C   0  0  0  0  0  0  0  0  0  0  0  0
    0.7500   -8.0938    0.0000 C   0  0  0  0  0  0  0  0  0  0  0  0
   -0.7500   -8.0938    0.0000 C   0  0  0  0  0  0  0  0  0  0  0  0
   -2.2245   -7.8182    0.0000 C   0  0  0  0  0  0  0  0  0  0  0  0
   -3.6232   -7.2763    0.0000 C   0  0  0  0  0  0  0  0  0  0  0  0
   -4.8985   -6.4867    0.0000 C   0  0  0  0  0  0  0  0  0  0  0  0
   -6.0070   -5.4761    0.0000 C   0  0  0  0  0  0  0  0  0  0  0  0
   -6.9110   -4.2791    0.0000 C   0  0  0  0  0  0  0  0  0  0  0  0
   -7.5796   -2.9363    0.0000 C   0  0  0  0  0  0  0  0  0  0  0  0
   -7.9901   -1.4936    0.0000 C   0  0  0  0  0  0  0  0  0  0  0  0
   -8.1285    0.0000    0.0000 C   0  0  0  0  0  0  0  0  0  0  0  0
   -7.9901    1.4936    0.0000 C   0  0  0  0  0  0  0  0  0  0  0  0
   -7.5796    2.9363    0.0000 C   0  0  0  0  0  0  0  0  0  0  0  0
   -6.9110    4.2791    0.0000 C   0  0  0  0  0  0  0  0  0  0  0  0
   -6.0070    5.4761    0.0000 C   0  0  0  0  0  0  0  0  0  0  0  0
   -4.8985    6.4867    0.0000 C   0  0  0  0  0  0  0  0  0  0  0  0
   -3.6232    7.2763    0.0000 C   0  0  0  0  0  0  0  0  0  0  0  0
   -2.2245    7.8182    0.0000 C   0  0  0  0  0  0  0  0  0  0  0  0
   -0.7500    8.0938    0.0000 C   0  0  0  0  0  0  0  0  0  0  0  0
    0.7500    8.0938    0.0000 C   0  0  0  0  0  0  0  0  0  0  0  0
    2.2245    7.8182    0.0000 C   0  0  0  0  0  0  0  0  0  0  0  0
    3.6232    7.2763    0.0000 C   0  0  0  0  0  0  0  0  0  0  0  0
    4.8985    6.4867    0.0000 C   0  0  0  0  0  0  0  0  0  0  0  0
    6.0070    5.4761    0.0000 C   0  0  0  0  0  0  0  0  0  0  0  0
    6.9110    4.2791    0.0000 C   0  0  0  0  0  0  0  0  0  0  0  0
    7.5796    2.9363    0.0000 C   0  0  0  0  0  0  0  0  0  0  0  0
    7.9901    1.4936    0.0000 C   0  0  0  0  0  0  0  0  0  0  0  0
  1  2  1  0
  2  3  2  0
  3  4  1  0
  4  5  2  0
  5  6  1  0
  6  7  2  0
  7  8  1  0
  8  9  2  0
  9 10  1  0
 10 11  2  0
 11 12  1  0
 12 13  2  0
 13 14  1  0
 14 15  2  0
 15 16  1  0
 16 17  2  0
 17 18  1  0
 18 19  2  0
 19 20  1  0
 20 21  2  0
 21 22  1  0
 22 23  2  0
 23 24  1  0
 24 25  2  0
 25 26  1  0
 26 27  2  0
 27 28  1  0
 28 29  2  0
 29 30  1  0
 30 31  2  0
 31 32  1  0
 32 33  2  0
 33 34  1  0
 34 35  2  0
 35  2  1  0
M  END
>  <Title>  (1508) 
idACFZgen8

$$$$

     RDKit          2D

 37 42  0  0  0  0  0  0  0  0999 V2000
    0.8311   10.2038    0.0000 C   0  0  0  0  0  0  0  0  0  0  0  0
   -0.5392    9.5937    0.0000 C   0  0  0  0  0  0  0  0  0  0  0  0
   -1.7527   10.4753    0.0000 C   0  0  0  0  0  0  0  0  0  0  0  0
   -3.1230    9.8652    0.0000 C   0  0  0  0  0  0  0  0  0  0  0  0
   -3.2798    8.3735    0.0000 C   0  0  0  0  0  0  0  0  0  0  0  0
   -4.6502    7.7634    0.0000 C   0  0  0  0  0  0  0  0  0  0  0  0
   -5.9492    8.5134    0.0000 N   0  0  0  0  0  0  0  0  0  0  0  0
   -7.0639    7.5097    0.0000 N   0  0  0  0  0  0  0  0  0  0  0  0
   -6.4538    6.1393    0.0000 N   0  0  0  0  0  0  0  0  0  0  0  0
   -4.9620    6.2961    0.0000 N   0  0  0  0  0  0  0  0  0  0  0  0
   -3.9583    5.1814    0.0000 C   0  0  0  0  0  0  0  0  0  0  0  0
   -2.4911    5.4933    0.0000 C   0  0  0  0  0  0  0  0  0  0  0  0
   -1.4874    4.3786    0.0000 C   0  0  0  0  0  0  0  0  0  0  0  0
   -1.9509    2.9520    0.0000 N   0  0  0  0  0  0  0  0  0  0  0  0
   -3.4182    2.6401    0.0000 N   0  0  0  0  0  0  0  0  0  0  0  0
   -4.4218    3.7548    0.0000 N   0  0  0  0  0  0  0  0  0  0  0  0
   -5.8891    3.4430    0.0000 C   0  0  0  0  0  0  0  0  0  0  0  0
   -6.8928    4.5577    0.0000 C   0  0  0  0  0  0  0  0  0  0  0  0
   -8.3600    4.2458    0.0000 C   0  0  0  0  0  0  0  0  0  0  0  0
   -8.8235    2.8192    0.0000 C   0  0  0  0  0  0  0  0  0  0  0  0
  -10.2907    2.5074    0.0000 C   0  0  0  0  0  0  0  0  0  0  0  0
   -7.8198    1.7045    0.0000 C   0  0  0  0  0  0  0  0  0  0  0  0
   -6.3526    2.0164    0.0000 C   0  0  0  0  0  0  0  0  0  0  0  0
   -5.3489    0.9017    0.0000 C   0  0  0  0  0  0  0  0  0  0  0  0
   -5.8124   -0.5249    0.0000 C   0  0  0  0  0  0  0  0  0  0  0  0
   -4.8087   -1.6396    0.0000 C   0  0  0  0  0  0  0  0  0  0  0  0
   -3.3415   -1.3278    0.0000 C   0  0  0  0  0  0  0  0  0  0  0  0
   -2.3378   -2.4425    0.0000 C   0  0  0  0  0  0  0  0  0  0  0  0
   -2.8013   -3.8691    0.0000 C   0  0  0  0  0  0  0  0  0  0  0  0
   -1.7976   -4.9838    0.0000 C   0  0  0  0  0  0  0  0  0  0  0  0
   -0.3304   -4.6719    0.0000 C   0  0  0  0  0  0  0  0  0  0  0  0
    0.1331   -3.2453    0.0000 C   0  0  0  0  0  0  0  0  0  0  0  0
   -0.8706   -2.1306    0.0000 C   0  0  0  0  0  0  0  0  0  0  0  0
   -2.8780    0.0988    0.0000 C   0  0  0  0  0  0  0  0  0  0  0  0
   -3.8817    1.2135    0.0000 C   0  0  0  0  0  0  0  0  0  0  0  0
   -2.0663    7.4918    0.0000 C   0  0  0  0  0  0  0  0  0  0  0  0
   -0.6960    8.1019    0.0000 C   0  0  0  0  0  0  0  0  0  0  0  0
  1  2  1  0
  2  3  2  0
  3  4  1  0
  4  5  2  0
  5  6  1  0
  6  7  2  0
  7  8  1  0
  8  9  2  0
  9 10  1  0
 10 11  1  0
 11 12  1  0
 12 13  1  0
 13 14  1  0
 14 15  2  0
 15 16  1  0
 16 17  1  0
 17 18  2  0
 18 19  1  0
 19 20  2  0
 20 21  1  0
 20 22  1  0
 22 23  2  0
 23 24  1  0
 24 25  2  0
 25 26  1  0
 26 27  2  0
 27 28  1  0
 28 29  2  0
 29 30  1  0
 30 31  2  0
 31 32  1  0
 32 33  2  0
 27 34  1  0
 34 35  2  0
  5 36  1  0
 36 37  2  0
 37  2  1  0
 10  6  1  0
 16 11  1  0
 23 17  1  0
 35 24  1  0
 33 28  1  0
M  END
>  <Title>  (1509) 
idACGAgen8

$$$$

     RDKit          2D

 35 39  0  0  0  0  0  0  0  0999 V2000
    3.0000    0.0000    0.0000 C   0  0  0  0  0  0  0  0  0  0  0  0
    1.5000    0.0000    0.0000 C   0  0  0  0  0  0  0  0  0  0  0  0
    0.7500    1.2990    0.0000 C   0  0  0  0  0  0  0  0  0  0  0  0
   -0.7500    1.2990    0.0000 C   0  0  0  0  0  0  0  0  0  0  0  0
   -1.5000    0.0000    0.0000 C   0  0  0  0  0  0  0  0  0  0  0  0
   -3.0000    0.0000    0.0000 C   0  0  0  0  0  0  0  0  0  0  0  0
   -3.8817   -1.2135    0.0000 N   0  0  0  0  0  0  0  0  0  0  0  0
   -5.3083   -0.7500    0.0000 N   0  0  0  0  0  0  0  0  0  0  0  0
   -5.3083    0.7500    0.0000 N   0  0  0  0  0  0  0  0  0  0  0  0
   -3.8817    1.2135    0.0000 N   0  0  0  0  0  0  0  0  0  0  0  0
   -3.4182    2.6401    0.0000 C   0  0  0  0  0  0  0  0  0  0  0  0
   -1.9509    2.9520    0.0000 C   0  0  0  0  0  0  0  0  0  0  0  0
   -1.4874    4.3786    0.0000 C   0  0  0  0  0  0  0  0  0  0  0  0
   -2.4911    5.4933    0.0000 C   0  0  0  0  0  0  0  0  0  0  0  0
   -3.9583    5.1814    0.0000 C   0  0  0  0  0  0  0  0  0  0  0  0
   -4.4218    3.7548    0.0000 C   0  0  0  0  0  0  0  0  0  0  0  0
   -5.8891    3.4430    0.0000 N   0  0  0  0  0  0  0  0  0  0  0  0
   -6.3526    2.0164    0.0000 N   0  0  0  0  0  0  0  0  0  0  0  0
   -7.8198    1.7045    0.0000 N   0  0  0  0  0  0  0  0  0  0  0  0
   -8.8235    2.8192    0.0000 N   0  0  0  0  0  0  0  0  0  0  0  0
   -8.3600    4.2458    0.0000 N   0  0  0  0  0  0  0  0  0  0  0  0
   -6.8928    4.5577    0.0000 N   0  0  0  0  0  0  0  0  0  0  0  0
   -6.4292    5.9843    0.0000 C   0  0  0  0  0  0  0  0  0  0  0  0
   -7.4329    7.0990    0.0000 C   0  0  0  0  0  0  0  0  0  0  0  0
   -6.9694    8.5256    0.0000 C   0  0  0  0  0  0  0  0  0  0  0  0
   -5.5022    8.8374    0.0000 C   0  0  0  0  0  0  0  0  0  0  0  0
   -5.0387   10.2640    0.0000 C   0  0  0  0  0  0  0  0  0  0  0  0
   -3.5714   10.5759    0.0000 O   0  0  0  0  0  0  0  0  0  0  0  0
   -6.0424   11.3787    0.0000 N   0  0  0  0  0  0  0  0  0  0  0  0
   -5.5788   12.8053    0.0000 O   0  0  0  0  0  0  0  0  0  0  0  0
   -4.4985    7.7227    0.0000 C   0  0  0  0  0  0  0  0  0  0  0  0
   -4.9620    6.2961    0.0000 C   0  0  0  0  0  0  0  0  0  0  0  0
   -0.7500   -1.2990    0.0000 C   0  0  0  0  0  0  0  0  0  0  0  0
   -1.5000   -2.5981    0.0000 O   0  0  0  0  0  0  0  0  0  0  0  0
    0.7500   -1.2990    0.0000 N   0  0  0  0  0  0  0  0  0  0  0  0
  1  2  1  0
  2  3  2  0
  3  4  1  0
  4  5  2  0
  5  6  1  0
  6  7  2  0
  7  8  1  0
  8  9  2  0
  9 10  1  0
 10 11  1  0
 11 12  2  0
 12 13  1  0
 13 14  2  0
 14 15  1  0
 15 16  2  0
 16 17  1  0
 17 18  1  0
 18 19  2  0
 19 20  1  0
 20 21  2  0
 21 22  1  0
 22 23  1  0
 23 24  2  0
 24 25  1  0
 25 26  2  0
 26 27  1  0
 27 28  2  0
 27 29  1  0
 29 30  1  0
 26 31  1  0
 31 32  1  0
  5 33  1  0
 33 34  2  0
 33 35  1  0
 35  2  1  0
 10  6  1  0
 16 11  1  0
 22 17  1  0
 32 23  1  0
M  END
>  <Title>  (1510) 
idACGBgen8

$$$$

     RDKit          2D

 28 31  0  0  0  0  0  0  0  0999 V2000
   -6.0000   -5.1962    0.0000 C   0  0  0  0  0  0  0  0  0  0  0  0
   -5.2500   -3.8971    0.0000 C   0  0  0  0  0  0  0  0  0  0  0  0
   -6.0000   -2.5981    0.0000 C   0  0  0  0  0  0  0  0  0  0  0  0
   -5.2500   -1.2990    0.0000 C   0  0  0  0  0  0  0  0  0  0  0  0
   -3.7500   -1.2990    0.0000 C   0  0  0  0  0  0  0  0  0  0  0  0
   -3.0000    0.0000    0.0000 C   0  0  0  0  0  0  0  0  0  0  0  0
   -3.7500    1.2990    0.0000 C   0  0  0  0  0  0  0  0  0  0  0  0
   -5.2418    1.4558    0.0000 N   0  0  0  0  0  0  0  0  0  0  0  0
   -5.5537    2.9231    0.0000 N   0  0  0  0  0  0  0  0  0  0  0  0
   -4.2546    3.6731    0.0000 N   0  0  0  0  0  0  0  0  0  0  0  0
   -3.1399    2.6694    0.0000 N   0  0  0  0  0  0  0  0  0  0  0  0
   -1.6727    2.9812    0.0000 C   0  0  0  0  0  0  0  0  0  0  0  0
   -0.6690    1.8665    0.0000 C   0  0  0  0  0  0  0  0  0  0  0  0
    0.7982    2.1784    0.0000 C   0  0  0  0  0  0  0  0  0  0  0  0
    1.2618    3.6050    0.0000 C   0  0  0  0  0  0  0  0  0  0  0  0
    2.7290    3.9168    0.0000 C   0  0  0  0  0  0  0  0  0  0  0  0
    3.7327    2.8021    0.0000 C   0  0  0  0  0  0  0  0  0  0  0  0
    5.1999    3.1140    0.0000 C   0  0  0  0  0  0  0  0  0  0  0  0
    5.6634    4.5406    0.0000 C   0  0  0  0  0  0  0  0  0  0  0  0
    4.6597    5.6553    0.0000 N   0  0  0  0  0  0  0  0  0  0  0  0
    3.1925    5.3434    0.0000 C   0  0  0  0  0  0  0  0  0  0  0  0
    2.1888    6.4581    0.0000 O   0  0  0  0  0  0  0  0  0  0  0  0
    0.2581    4.7197    0.0000 C   0  0  0  0  0  0  0  0  0  0  0  0
    0.7216    6.1463    0.0000 O   0  0  0  0  0  0  0  0  0  0  0  0
   -1.2091    4.4078    0.0000 N   0  0  0  0  0  0  0  0  0  0  0  0
   -3.0000   -2.5981    0.0000 N   0  0  0  0  0  0  0  0  0  0  0  0
   -3.7500   -3.8971    0.0000 C   0  0  0  0  0  0  0  0  0  0  0  0
   -3.0000   -5.1962    0.0000 O   0  0  0  0  0  0  0  0  0  0  0  0
  1  2  1  0
  2  3  2  0
  3  4  1  0
  4  5  2  0
  5  6  1  0
  6  7  1  0
  7  8  2  0
  8  9  1  0
  9 10  2  0
 10 11  1  0
 11 12  1  0
 12 13  2  0
 13 14  1  0
 14 15  2  0
 15 16  1  0
 16 17  2  0
 17 18  1  0
 18 19  2  0
 19 20  1  0
 20 21  1  0
 21 22  2  0
 15 23  1  0
 23 24  2  0
 23 25  1  0
  5 26  1  0
 26 27  1  0
 27 28  2  0
 27  2  1  0
 11  7  1  0
 25 12  1  0
 21 16  1  0
M  END
>  <Title>  (1511) 
idACGCgen8

$$$$

     RDKit          2D

 30 30  0  0  0  0  0  0  0  0999 V2000
    8.1986    0.0000    0.0000 C   0  0  0  0  0  0  0  0  0  0  0  0
    6.6986    0.0000    0.0000 C   0  0  0  0  0  0  0  0  0  0  0  0
    6.5306   -1.4906    0.0000 C   0  0  0  0  0  0  0  0  0  0  0  0
    6.0352   -2.9064    0.0000 C   0  0  0  0  0  0  0  0  0  0  0  0
    5.2371   -4.1765    0.0000 C   0  0  0  0  0  0  0  0  0  0  0  0
    4.1765   -5.2371    0.0000 C   0  0  0  0  0  0  0  0  0  0  0  0
    2.9064   -6.0352    0.0000 C   0  0  0  0  0  0  0  0  0  0  0  0
    1.4906   -6.5306    0.0000 C   0  0  0  0  0  0  0  0  0  0  0  0
   -0.0000   -6.6986    0.0000 C   0  0  0  0  0  0  0  0  0  0  0  0
   -1.4906   -6.5306    0.0000 C   0  0  0  0  0  0  0  0  0  0  0  0
   -2.9064   -6.0352    0.0000 C   0  0  0  0  0  0  0  0  0  0  0  0
   -4.1765   -5.2371    0.0000 C   0  0  0  0  0  0  0  0  0  0  0  0
   -5.2371   -4.1765    0.0000 C   0  0  0  0  0  0  0  0  0  0  0  0
   -6.0352   -2.9064    0.0000 C   0  0  0  0  0  0  0  0  0  0  0  0
   -6.5306   -1.4906    0.0000 C   0  0  0  0  0  0  0  0  0  0  0  0
   -6.6986    0.0000    0.0000 C   0  0  0  0  0  0  0  0  0  0  0  0
   -6.5306    1.4906    0.0000 C   0  0  0  0  0  0  0  0  0  0  0  0
   -6.0352    2.9064    0.0000 C   0  0  0  0  0  0  0  0  0  0  0  0
   -5.2371    4.1765    0.0000 C   0  0  0  0  0  0  0  0  0  0  0  0
   -4.1765    5.2371    0.0000 C   0  0  0  0  0  0  0  0  0  0  0  0
   -2.9064    6.0352    0.0000 C   0  0  0  0  0  0  0  0  0  0  0  0
   -1.4906    6.5306    0.0000 C   0  0  0  0  0  0  0  0  0  0  0  0
    0.0000    6.6986    0.0000 C   0  0  0  0  0  0  0  0  0  0  0  0
    1.4906    6.5306    0.0000 C   0  0  0  0  0  0  0  0  0  0  0  0
    2.9064    6.0352    0.0000 C   0  0  0  0  0  0  0  0  0  0  0  0
    4.1765    5.2371    0.0000 C   0  0  0  0  0  0  0  0  0  0  0  0
    5.2371    4.1765    0.0000 C   0  0  0  0  0  0  0  0  0  0  0  0
    6.0352    2.9064    0.0000 C   0  0  0  0  0  0  0  0  0  0  0  0
    6.5306    1.4906    0.0000 C   0  0  0  0  0  0  0  0  0  0  0  0
    7.9930    1.8243    0.0000 O   0  0  0  0  0  0  0  0  0  0  0  0
  1  2  1  0
  2  3  2  0
  3  4  1  0
  4  5  2  0
  5  6  1  0
  6  7  2  0
  7  8  1  0
  8  9  2  0
  9 10  1  0
 10 11  2  0
 11 12  1  0
 12 13  2  0
 13 14  1  0
 14 15  2  0
 15 16  1  0
 16 17  2  0
 17 18  1  0
 18 19  2  0
 19 20  1  0
 20 21  2  0
 21 22  1  0
 22 23  2  0
 23 24  1  0
 24 25  2  0
 25 26  1  0
 26 27  2  0
 27 28  1  0
 28 29  2  0
 29 30  1  0
 29  2  1  0
M  END
>  <Title>  (1512) 
idACGDgen8

$$$$

     RDKit          2D

 38 43  0  0  0  0  0  0  0  0999 V2000
    3.7500   -1.2990    0.0000 C   0  0  0  0  0  0  0  0  0  0  0  0
    3.0000    0.0000    0.0000 O   0  0  0  0  0  0  0  0  0  0  0  0
    1.5000    0.0000    0.0000 C   0  0  0  0  0  0  0  0  0  0  0  0
    0.7500   -1.2990    0.0000 C   0  0  0  0  0  0  0  0  0  0  0  0
   -0.7500   -1.2990    0.0000 C   0  0  0  0  0  0  0  0  0  0  0  0
   -1.5000    0.0000    0.0000 C   0  0  0  0  0  0  0  0  0  0  0  0
   -3.0000    0.0000    0.0000 C   0  0  0  0  0  0  0  0  0  0  0  0
   -3.8817   -1.2135    0.0000 N   0  0  0  0  0  0  0  0  0  0  0  0
   -5.3083   -0.7500    0.0000 N   0  0  0  0  0  0  0  0  0  0  0  0
   -5.3083    0.7500    0.0000 N   0  0  0  0  0  0  0  0  0  0  0  0
   -3.8817    1.2135    0.0000 N   0  0  0  0  0  0  0  0  0  0  0  0
   -3.4182    2.6401    0.0000 C   0  0  0  0  0  0  0  0  0  0  0  0
   -1.9509    2.9520    0.0000 C   0  0  0  0  0  0  0  0  0  0  0  0
   -1.4874    4.3786    0.0000 C   0  0  0  0  0  0  0  0  0  0  0  0
   -2.4911    5.4933    0.0000 C   0  0  0  0  0  0  0  0  0  0  0  0
   -2.0276    6.9199    0.0000 C   0  0  0  0  0  0  0  0  0  0  0  0
   -0.5604    7.2317    0.0000 C   0  0  0  0  0  0  0  0  0  0  0  0
   -0.0968    8.6583    0.0000 C   0  0  0  0  0  0  0  0  0  0  0  0
   -1.1005    9.7730    0.0000 C   0  0  0  0  0  0  0  0  0  0  0  0
   -2.5677    9.4612    0.0000 C   0  0  0  0  0  0  0  0  0  0  0  0
   -3.0313    8.0346    0.0000 C   0  0  0  0  0  0  0  0  0  0  0  0
   -4.4985    7.7227    0.0000 C   0  0  0  0  0  0  0  0  0  0  0  0
   -5.5022    8.8374    0.0000 C   0  0  0  0  0  0  0  0  0  0  0  0
   -6.9694    8.5256    0.0000 C   0  0  0  0  0  0  0  0  0  0  0  0
   -7.4329    7.0990    0.0000 C   0  0  0  0  0  0  0  0  0  0  0  0
   -6.4292    5.9843    0.0000 C   0  0  0  0  0  0  0  0  0  0  0  0
   -4.9620    6.2961    0.0000 C   0  0  0  0  0  0  0  0  0  0  0  0
   -3.9583    5.1814    0.0000 C   0  0  0  0  0  0  0  0  0  0  0  0
   -4.4218    3.7548    0.0000 C   0  0  0  0  0  0  0  0  0  0  0  0
   -5.8891    3.4430    0.0000 C   0  0  0  0  0  0  0  0  0  0  0  0
   -6.8928    4.5577    0.0000 C   0  0  0  0  0  0  0  0  0  0  0  0
   -8.3600    4.2458    0.0000 C   0  0  0  0  0  0  0  0  0  0  0  0
   -8.8235    2.8192    0.0000 C   0  0  0  0  0  0  0  0  0  0  0  0
  -10.2907    2.5074    0.0000 C   0  0  0  0  0  0  0  0  0  0  0  0
   -7.8198    1.7045    0.0000 C   0  0  0  0  0  0  0  0  0  0  0  0
   -6.3526    2.0164    0.0000 C   0  0  0  0  0  0  0  0  0  0  0  0
   -0.7500    1.2990    0.0000 C   0  0  0  0  0  0  0  0  0  0  0  0
    0.7500    1.2990    0.0000 C   0  0  0  0  0  0  0  0  0  0  0  0
  1  2  1  0
  2  3  1  0
  3  4  2  0
  4  5  1  0
  5  6  2  0
  6  7  1  0
  7  8  2  0
  8  9  1  0
  9 10  2  0
 10 11  1  0
 11 12  1  0
 12 13  2  0
 13 14  1  0
 14 15  2  0
 15 16  1  0
 16 17  2  0
 17 18  1  0
 18 19  2  0
 19 20  1  0
 20 21  2  0
 21 22  1  0
 22 23  2  0
 23 24  1  0
 24 25  2  0
 25 26  1  0
 26 27  2  0
 15 28  1  0
 28 29  2  0
 29 30  1  0
 30 31  2  0
 31 32  1  0
 32 33  2  0
 33 34  1  0
 33 35  1  0
 35 36  2  0
  6 37  1  0
 37 38  2  0
 38  3  1  0
 11  7  1  0
 29 12  1  0
 36 30  1  0
 21 16  1  0
 27 22  1  0
M  END
>  <Title>  (1513) 
idACGEgen8

$$$$

     RDKit          2D

 56 64  0  0  0  0  0  0  0  0999 V2000
  -15.2460   -4.2722    0.0000 C   0  0  0  0  0  0  0  0  0  0  0  0
  -14.4960   -2.9731    0.0000 C   0  0  0  0  0  0  0  0  0  0  0  0
  -15.2460   -1.6741    0.0000 C   0  0  0  0  0  0  0  0  0  0  0  0
  -14.4960   -0.3751    0.0000 C   0  0  0  0  0  0  0  0  0  0  0  0
  -12.9960   -0.3751    0.0000 C   0  0  0  0  0  0  0  0  0  0  0  0
  -12.2460    0.9240    0.0000 C   0  0  0  0  0  0  0  0  0  0  0  0
  -12.8561    2.2943    0.0000 N   0  0  0  0  0  0  0  0  0  0  0  0
  -11.7414    3.2980    0.0000 N   0  0  0  0  0  0  0  0  0  0  0  0
  -10.4424    2.5480    0.0000 N   0  0  0  0  0  0  0  0  0  0  0  0
  -10.7543    1.0808    0.0000 N   0  0  0  0  0  0  0  0  0  0  0  0
   -9.7506   -0.0339    0.0000 C   0  0  0  0  0  0  0  0  0  0  0  0
  -10.2141   -1.4605    0.0000 C   0  0  0  0  0  0  0  0  0  0  0  0
   -9.2104   -2.5752    0.0000 C   0  0  0  0  0  0  0  0  0  0  0  0
   -7.7432   -2.2634    0.0000 C   0  0  0  0  0  0  0  0  0  0  0  0
   -7.2796   -0.8368    0.0000 N   0  0  0  0  0  0  0  0  0  0  0  0
   -8.2833    0.2779    0.0000 C   0  0  0  0  0  0  0  0  0  0  0  0
   -7.8198    1.7045    0.0000 N   0  0  0  0  0  0  0  0  0  0  0  0
   -8.8235    2.8192    0.0000 N   0  0  0  0  0  0  0  0  0  0  0  0
   -8.3600    4.2458    0.0000 N   0  0  0  0  0  0  0  0  0  0  0  0
   -6.8928    4.5577    0.0000 N   0  0  0  0  0  0  0  0  0  0  0  0
   -5.8891    3.4430    0.0000 N   0  0  0  0  0  0  0  0  0  0  0  0
   -6.3526    2.0164    0.0000 N   0  0  0  0  0  0  0  0  0  0  0  0
   -5.3489    0.9017    0.0000 C   0  0  0  0  0  0  0  0  0  0  0  0
   -5.8124   -0.5249    0.0000 C   0  0  0  0  0  0  0  0  0  0  0  0
   -4.8087   -1.6396    0.0000 C   0  0  0  0  0  0  0  0  0  0  0  0
   -3.3415   -1.3278    0.0000 C   0  0  0  0  0  0  0  0  0  0  0  0
   -2.3378   -2.4425    0.0000 C   0  0  0  0  0  0  0  0  0  0  0  0
   -0.8460   -2.2857    0.0000 N   0  0  0  0  0  0  0  0  0  0  0  0
   -0.2359   -3.6560    0.0000 N   0  0  0  0  0  0  0  0  0  0  0  0
   -1.3506   -4.6597    0.0000 N   0  0  0  0  0  0  0  0  0  0  0  0
   -2.6497   -3.9097    0.0000 N   0  0  0  0  0  0  0  0  0  0  0  0
   -4.0200   -4.5198    0.0000 C   0  0  0  0  0  0  0  0  0  0  0  0
   -5.3190   -3.7698    0.0000 N   0  0  0  0  0  0  0  0  0  0  0  0
   -6.4338   -4.7735    0.0000 N   0  0  0  0  0  0  0  0  0  0  0  0
   -5.8236   -6.1438    0.0000 N   0  0  0  0  0  0  0  0  0  0  0  0
   -4.3319   -5.9870    0.0000 N   0  0  0  0  0  0  0  0  0  0  0  0
   -3.3282   -7.1018    0.0000 C   0  0  0  0  0  0  0  0  0  0  0  0
   -1.8609   -6.7899    0.0000 C   0  0  0  0  0  0  0  0  0  0  0  0
   -0.8573   -7.9046    0.0000 C   0  0  0  0  0  0  0  0  0  0  0  0
   -1.3208   -9.3312    0.0000 C   0  0  0  0  0  0  0  0  0  0  0  0
   -2.7880   -9.6431    0.0000 C   0  0  0  0  0  0  0  0  0  0  0  0
   -3.7917   -8.5283    0.0000 C   0  0  0  0  0  0  0  0  0  0  0  0
   -2.8780    0.0988    0.0000 C   0  0  0  0  0  0  0  0  0  0  0  0
   -3.8817    1.2135    0.0000 C   0  0  0  0  0  0  0  0  0  0  0  0
   -3.4182    2.6401    0.0000 C   0  0  0  0  0  0  0  0  0  0  0  0
   -1.9509    2.9520    0.0000 C   0  0  0  0  0  0  0  0  0  0  0  0
   -1.4874    4.3786    0.0000 C   0  0  0  0  0  0  0  0  0  0  0  0
   -2.4911    5.4933    0.0000 C   0  0  0  0  0  0  0  0  0  0  0  0
   -2.0276    6.9199    0.0000 C   0  0  0  0  0  0  0  0  0  0  0  0
   -3.0313    8.0346    0.0000 O   0  0  0  0  0  0  0  0  0  0  0  0
   -0.5604    7.2317    0.0000 N   0  0  0  0  0  0  0  0  0  0  0  0
   -0.0968    8.6583    0.0000 O   0  0  0  0  0  0  0  0  0  0  0  0
   -3.9583    5.1814    0.0000 C   0  0  0  0  0  0  0  0  0  0  0  0
   -4.4218    3.7548    0.0000 C   0  0  0  0  0  0  0  0  0  0  0  0
  -12.2460   -1.6741    0.0000 C   0  0  0  0  0  0  0  0  0  0  0  0
  -12.9960   -2.9731    0.0000 C   0  0  0  0  0  0  0  0  0  0  0  0
  1  2  1  0
  2  3  2  0
  3  4  1  0
  4  5  2  0
  5  6  1  0
  6  7  2  0
  7  8  1  0
  8  9  2  0
  9 10  1  0
 10 11  1  0
 11 12  1  0
 12 13  1  0
 13 14  1  0
 14 15  1  0
 15 16  1  0
 16 17  1  0
 17 18  1  0
 18 19  2  0
 19 20  1  0
 20 21  2  0
 21 22  1  0
 22 23  1  0
 23 24  2  0
 24 25  1  0
 25 26  2  0
 26 27  1  0
 27 28  2  0
 28 29  1  0
 29 30  2  0
 30 31  1  0
 31 32  1  0
 32 33  2  0
 33 34  1  0
 34 35  2  0
 35 36  1  0
 36 37  1  0
 37 38  2  0
 38 39  1  0
 39 40  2  0
 40 41  1  0
 41 42  2  0
 26 43  1  0
 43 44  2  0
 44 45  1  0
 45 46  2  0
 46 47  1  0
 47 48  2  0
 48 49  1  0
 49 50  2  0
 49 51  1  0
 51 52  1  0
 48 53  1  0
 53 54  1  0
  5 55  1  0
 55 56  2  0
 56  2  1  0
 10  6  1  0
 16 11  1  0
 22 17  1  0
 44 23  1  0
 54 45  1  0
 31 27  1  0
 36 32  1  0
 42 37  1  0
M  END
>  <Title>  (1514) 
idACGFgen8

$$$$

     RDKit          2D

 15 15  0  0  0  0  0  0  0  0999 V2000
    6.1771   -1.2990    0.0000 C   0  0  0  0  0  0  0  0  0  0  0  0
    4.6771   -1.2990    0.0000 C   0  0  0  0  0  0  0  0  0  0  0  0
    3.9271   -2.5981    0.0000 O   0  0  0  0  0  0  0  0  0  0  0  0
    3.9271    0.0000    0.0000 O   0  0  0  0  0  0  0  0  0  0  0  0
    2.4271    0.0000    0.0000 C   0  0  0  0  0  0  0  0  0  0  0  0
    1.9635   -1.4266    0.0000 C   0  0  0  0  0  0  0  0  0  0  0  0
    0.7500   -2.3083    0.0000 C   0  0  0  0  0  0  0  0  0  0  0  0
   -0.7500   -2.3083    0.0000 C   0  0  0  0  0  0  0  0  0  0  0  0
   -1.9635   -1.4266    0.0000 C   0  0  0  0  0  0  0  0  0  0  0  0
   -2.4271    0.0000    0.0000 C   0  0  0  0  0  0  0  0  0  0  0  0
   -1.9635    1.4266    0.0000 C   0  0  0  0  0  0  0  0  0  0  0  0
   -0.7500    2.3083    0.0000 C   0  0  0  0  0  0  0  0  0  0  0  0
    0.7500    2.3083    0.0000 C   0  0  0  0  0  0  0  0  0  0  0  0
    1.9635    1.4266    0.0000 C   0  0  0  0  0  0  0  0  0  0  0  0
    3.1771    2.3083    0.0000 C   0  0  0  0  0  0  0  0  0  0  0  0
  1  2  1  0
  2  3  2  0
  2  4  1  0
  4  5  1  0
  5  6  2  0
  6  7  1  0
  7  8  2  0
  8  9  1  0
  9 10  2  0
 10 11  1  0
 11 12  2  0
 12 13  1  0
 13 14  2  0
 14 15  1  0
 14  5  1  0
M  END
>  <Title>  (1515) 
idACGGgen8

$$$$

     RDKit          2D

 25 25  0  0  0  0  0  0  0  0999 V2000
    7.5200   -1.2990    0.0000 C   0  0  0  0  0  0  0  0  0  0  0  0
    6.7700    0.0000    0.0000 O   0  0  0  0  0  0  0  0  0  0  0  0
    5.2700    0.0000    0.0000 C   0  0  0  0  0  0  0  0  0  0  0  0
    5.0565   -1.4847    0.0000 C   0  0  0  0  0  0  0  0  0  0  0  0
    4.4334   -2.8492    0.0000 C   0  0  0  0  0  0  0  0  0  0  0  0
    3.4511   -3.9828    0.0000 C   0  0  0  0  0  0  0  0  0  0  0  0
    2.1892   -4.7938    0.0000 C   0  0  0  0  0  0  0  0  0  0  0  0
    0.7500   -5.2164    0.0000 C   0  0  0  0  0  0  0  0  0  0  0  0
   -0.7500   -5.2164    0.0000 C   0  0  0  0  0  0  0  0  0  0  0  0
   -2.1892   -4.7938    0.0000 C   0  0  0  0  0  0  0  0  0  0  0  0
   -3.4511   -3.9828    0.0000 C   0  0  0  0  0  0  0  0  0  0  0  0
   -4.4334   -2.8492    0.0000 C   0  0  0  0  0  0  0  0  0  0  0  0
   -5.0565   -1.4847    0.0000 C   0  0  0  0  0  0  0  0  0  0  0  0
   -5.2700    0.0000    0.0000 C   0  0  0  0  0  0  0  0  0  0  0  0
   -5.0565    1.4847    0.0000 C   0  0  0  0  0  0  0  0  0  0  0  0
   -4.4334    2.8492    0.0000 C   0  0  0  0  0  0  0  0  0  0  0  0
   -3.4511    3.9828    0.0000 C   0  0  0  0  0  0  0  0  0  0  0  0
   -2.1892    4.7938    0.0000 C   0  0  0  0  0  0  0  0  0  0  0  0
   -0.7500    5.2164    0.0000 C   0  0  0  0  0  0  0  0  0  0  0  0
    0.7500    5.2164    0.0000 C   0  0  0  0  0  0  0  0  0  0  0  0
    2.1892    4.7938    0.0000 C   0  0  0  0  0  0  0  0  0  0  0  0
    3.4511    3.9828    0.0000 C   0  0  0  0  0  0  0  0  0  0  0  0
    4.4334    2.8492    0.0000 C   0  0  0  0  0  0  0  0  0  0  0  0
    5.0565    1.4847    0.0000 C   0  0  0  0  0  0  0  0  0  0  0  0
    6.4958    1.9073    0.0000 C   0  0  0  0  0  0  0  0  0  0  0  0
  1  2  1  0
  2  3  1  0
  3  4  2  0
  4  5  1  0
  5  6  2  0
  6  7  1  0
  7  8  2  0
  8  9  1  0
  9 10  2  0
 10 11  1  0
 11 12  2  0
 12 13  1  0
 13 14  2  0
 14 15  1  0
 15 16  2  0
 16 17  1  0
 17 18  2  0
 18 19  1  0
 19 20  2  0
 20 21  1  0
 21 22  2  0
 22 23  1  0
 23 24  2  0
 24 25  1  0
 24  3  1  0
M  END
>  <Title>  (1516) 
idACGHgen8

$$$$

     RDKit          2D

 14 14  0  0  0  0  0  0  0  0999 V2000
    4.3978    0.0000    0.0000 C   0  0  0  0  0  0  0  0  0  0  0  0
    2.8978    0.0000    0.0000 C   0  0  0  0  0  0  0  0  0  0  0  0
    2.5095   -1.4489    0.0000 C   0  0  0  0  0  0  0  0  0  0  0  0
    1.4489   -2.5095    0.0000 C   0  0  0  0  0  0  0  0  0  0  0  0
   -0.0000   -2.8978    0.0000 C   0  0  0  0  0  0  0  0  0  0  0  0
   -1.4489   -2.5095    0.0000 C   0  0  0  0  0  0  0  0  0  0  0  0
   -2.5095   -1.4489    0.0000 C   0  0  0  0  0  0  0  0  0  0  0  0
   -3.8086   -2.1989    0.0000 F   0  0  0  0  0  0  0  0  0  0  0  0
   -2.8978    0.0000    0.0000 C   0  0  0  0  0  0  0  0  0  0  0  0
   -2.5095    1.4489    0.0000 C   0  0  0  0  0  0  0  0  0  0  0  0
   -1.4489    2.5095    0.0000 C   0  0  0  0  0  0  0  0  0  0  0  0
    0.0000    2.8978    0.0000 C   0  0  0  0  0  0  0  0  0  0  0  0
    1.4489    2.5095    0.0000 C   0  0  0  0  0  0  0  0  0  0  0  0
    2.5095    1.4489    0.0000 C   0  0  0  0  0  0  0  0  0  0  0  0
  1  2  1  0
  2  3  2  0
  3  4  1  0
  4  5  2  0
  5  6  1  0
  6  7  2  0
  7  8  1  0
  7  9  1  0
  9 10  2  0
 10 11  1  0
 11 12  2  0
 12 13  1  0
 13 14  2  0
 14  2  1  0
M  END
>  <Title>  (1517) 
idACGIgen8

$$$$

     RDKit          2D

 36 41  0  0  0  0  0  0  0  0999 V2000
  -10.0056    5.7685    0.0000 C   0  0  0  0  0  0  0  0  0  0  0  0
  -10.1624    4.2767    0.0000 O   0  0  0  0  0  0  0  0  0  0  0  0
   -8.9488    3.3950    0.0000 C   0  0  0  0  0  0  0  0  0  0  0  0
   -7.5785    4.0051    0.0000 C   0  0  0  0  0  0  0  0  0  0  0  0
   -6.3650    3.1235    0.0000 C   0  0  0  0  0  0  0  0  0  0  0  0
   -6.5218    1.6317    0.0000 C   0  0  0  0  0  0  0  0  0  0  0  0
   -5.3083    0.7500    0.0000 C   0  0  0  0  0  0  0  0  0  0  0  0
   -5.3083   -0.7500    0.0000 N   0  0  0  0  0  0  0  0  0  0  0  0
   -3.8817   -1.2135    0.0000 N   0  0  0  0  0  0  0  0  0  0  0  0
   -3.0000    0.0000    0.0000 N   0  0  0  0  0  0  0  0  0  0  0  0
   -3.8817    1.2135    0.0000 N   0  0  0  0  0  0  0  0  0  0  0  0
   -3.4182    2.6401    0.0000 C   0  0  0  0  0  0  0  0  0  0  0  0
   -4.2998    3.8536    0.0000 N   0  0  0  0  0  0  0  0  0  0  0  0
   -3.4182    5.0672    0.0000 N   0  0  0  0  0  0  0  0  0  0  0  0
   -1.9916    4.6036    0.0000 N   0  0  0  0  0  0  0  0  0  0  0  0
   -1.9916    3.1036    0.0000 N   0  0  0  0  0  0  0  0  0  0  0  0
   -0.7780    2.2220    0.0000 C   0  0  0  0  0  0  0  0  0  0  0  0
   -0.7780    0.7220    0.0000 C   0  0  0  0  0  0  0  0  0  0  0  0
    0.6485    0.2584    0.0000 C   0  0  0  0  0  0  0  0  0  0  0  0
    1.5302    1.4720    0.0000 C   0  0  0  0  0  0  0  0  0  0  0  0
    3.0302    1.4720    0.0000 C   0  0  0  0  0  0  0  0  0  0  0  0
    3.9119    0.2584    0.0000 N   0  0  0  0  0  0  0  0  0  0  0  0
    5.3385    0.7220    0.0000 N   0  0  0  0  0  0  0  0  0  0  0  0
    5.3385    2.2220    0.0000 N   0  0  0  0  0  0  0  0  0  0  0  0
    3.9119    2.6855    0.0000 N   0  0  0  0  0  0  0  0  0  0  0  0
    3.4484    4.1121    0.0000 C   0  0  0  0  0  0  0  0  0  0  0  0
    1.9812    4.4239    0.0000 C   0  0  0  0  0  0  0  0  0  0  0  0
    1.5176    5.8505    0.0000 C   0  0  0  0  0  0  0  0  0  0  0  0
    2.5213    6.9652    0.0000 C   0  0  0  0  0  0  0  0  0  0  0  0
    3.9885    6.6534    0.0000 C   0  0  0  0  0  0  0  0  0  0  0  0
    4.4521    5.2268    0.0000 C   0  0  0  0  0  0  0  0  0  0  0  0
    0.6485    2.6855    0.0000 C   0  0  0  0  0  0  0  0  0  0  0  0
    1.1121    4.1121    0.0000 O   0  0  0  0  0  0  0  0  0  0  0  0
   -7.8921    1.0216    0.0000 N   0  0  0  0  0  0  0  0  0  0  0  0
   -9.1056    1.9033    0.0000 C   0  0  0  0  0  0  0  0  0  0  0  0
  -10.4760    1.2931    0.0000 O   0  0  0  0  0  0  0  0  0  0  0  0
  1  2  1  0
  2  3  1  0
  3  4  2  0
  4  5  1  0
  5  6  2  0
  6  7  1  0
  7  8  2  0
  8  9  1  0
  9 10  2  0
 10 11  1  0
 11 12  1  0
 12 13  2  0
 13 14  1  0
 14 15  2  0
 15 16  1  0
 16 17  1  0
 17 18  2  0
 18 19  1  0
 19 20  2  0
 20 21  1  0
 21 22  2  0
 22 23  1  0
 23 24  2  0
 24 25  1  0
 25 26  1  0
 26 27  2  0
 27 28  1  0
 28 29  2  0
 29 30  1  0
 30 31  2  0
 20 32  1  0
 32 33  2  0
  6 34  1  0
 34 35  1  0
 35 36  2  0
 35  3  1  0
 11  7  1  0
 16 12  1  0
 32 17  1  0
 25 21  1  0
 31 26  1  0
M  END
>  <Title>  (1518) 
idACGJgen8

$$$$

     RDKit          2D

 39 39  0  0  0  0  0  0  0  0999 V2000
   10.5822    0.0000    0.0000 C   0  0  0  0  0  0  0  0  0  0  0  0
    9.0822    0.0000    0.0000 C   0  0  0  0  0  0  0  0  0  0  0  0
    8.9583   -1.4949    0.0000 C   0  0  0  0  0  0  0  0  0  0  0  0
    8.5901   -2.9490    0.0000 C   0  0  0  0  0  0  0  0  0  0  0  0
    7.9875   -4.3226    0.0000 C   0  0  0  0  0  0  0  0  0  0  0  0
    7.1671   -5.5784    0.0000 C   0  0  0  0  0  0  0  0  0  0  0  0
    6.1512   -6.6820    0.0000 C   0  0  0  0  0  0  0  0  0  0  0  0
    4.9675   -7.6033    0.0000 C   0  0  0  0  0  0  0  0  0  0  0  0
    3.6483   -8.3172    0.0000 C   0  0  0  0  0  0  0  0  0  0  0  0
    2.2295   -8.8043    0.0000 C   0  0  0  0  0  0  0  0  0  0  0  0
    0.7500   -9.0512    0.0000 C   0  0  0  0  0  0  0  0  0  0  0  0
   -0.7500   -9.0512    0.0000 C   0  0  0  0  0  0  0  0  0  0  0  0
   -2.2295   -8.8043    0.0000 C   0  0  0  0  0  0  0  0  0  0  0  0
   -3.6483   -8.3172    0.0000 C   0  0  0  0  0  0  0  0  0  0  0  0
   -4.9675   -7.6033    0.0000 C   0  0  0  0  0  0  0  0  0  0  0  0
   -6.1512   -6.6820    0.0000 C   0  0  0  0  0  0  0  0  0  0  0  0
   -7.1671   -5.5784    0.0000 C   0  0  0  0  0  0  0  0  0  0  0  0
   -7.9875   -4.3226    0.0000 C   0  0  0  0  0  0  0  0  0  0  0  0
   -8.5901   -2.9490    0.0000 C   0  0  0  0  0  0  0  0  0  0  0  0
   -8.9583   -1.4949    0.0000 C   0  0  0  0  0  0  0  0  0  0  0  0
   -9.0822    0.0000    0.0000 C   0  0  0  0  0  0  0  0  0  0  0  0
   -8.9583    1.4949    0.0000 C   0  0  0  0  0  0  0  0  0  0  0  0
   -8.5901    2.9490    0.0000 C   0  0  0  0  0  0  0  0  0  0  0  0
   -7.9875    4.3226    0.0000 C   0  0  0  0  0  0  0  0  0  0  0  0
   -7.1671    5.5784    0.0000 C   0  0  0  0  0  0  0  0  0  0  0  0
   -6.1512    6.6820    0.0000 C   0  0  0  0  0  0  0  0  0  0  0  0
   -4.9675    7.6033    0.0000 C   0  0  0  0  0  0  0  0  0  0  0  0
   -3.6483    8.3172    0.0000 C   0  0  0  0  0  0  0  0  0  0  0  0
   -2.2295    8.8043    0.0000 C   0  0  0  0  0  0  0  0  0  0  0  0
   -0.7500    9.0512    0.0000 C   0  0  0  0  0  0  0  0  0  0  0  0
    0.7500    9.0512    0.0000 C   0  0  0  0  0  0  0  0  0  0  0  0
    2.2295    8.8043    0.0000 C   0  0  0  0  0  0  0  0  0  0  0  0
    3.6483    8.3172    0.0000 C   0  0  0  0  0  0  0  0  0  0  0  0
    4.9675    7.6033    0.0000 C   0  0  0  0  0  0  0  0  0  0  0  0
    6.1512    6.6820    0.0000 C   0  0  0  0  0  0  0  0  0  0  0  0
    7.1671    5.5784    0.0000 C   0  0  0  0  0  0  0  0  0  0  0  0
    7.9875    4.3226    0.0000 C   0  0  0  0  0  0  0  0  0  0  0  0
    8.5901    2.9490    0.0000 C   0  0  0  0  0  0  0  0  0  0  0  0
    8.9583    1.4949    0.0000 C   0  0  0  0  0  0  0  0  0  0  0  0
  1  2  1  0
  2  3  2  0
  3  4  1  0
  4  5  2  0
  5  6  1  0
  6  7  2  0
  7  8  1  0
  8  9  2  0
  9 10  1  0
 10 11  2  0
 11 12  1  0
 12 13  2  0
 13 14  1  0
 14 15  2  0
 15 16  1  0
 16 17  2  0
 17 18  1  0
 18 19  2  0
 19 20  1  0
 20 21  2  0
 21 22  1  0
 22 23  2  0
 23 24  1  0
 24 25  2  0
 25 26  1  0
 26 27  2  0
 27 28  1  0
 28 29  2  0
 29 30  1  0
 30 31  2  0
 31 32  1  0
 32 33  2  0
 33 34  1  0
 34 35  2  0
 35 36  1  0
 36 37  2  0
 37 38  1  0
 38 39  2  0
 39  2  1  0
M  END
>  <Title>  (1519) 
idACGKgen8

$$$$

     RDKit          2D

 31 34  0  0  0  0  0  0  0  0999 V2000
    3.2286   -0.0000    0.0000 C   0  0  0  0  0  0  0  0  0  0  0  0
    1.7286    0.0000    0.0000 C   0  0  0  0  0  0  0  0  0  0  0  0
    1.0777    1.3515    0.0000 C   0  0  0  0  0  0  0  0  0  0  0  0
   -0.3846    1.6852    0.0000 C   0  0  0  0  0  0  0  0  0  0  0  0
   -1.5574    0.7500    0.0000 C   0  0  0  0  0  0  0  0  0  0  0  0
   -2.9088    1.4008    0.0000 C   0  0  0  0  0  0  0  0  0  0  0  0
   -4.2297    0.6900    0.0000 N   0  0  0  0  0  0  0  0  0  0  0  0
   -5.3139    1.7266    0.0000 N   0  0  0  0  0  0  0  0  0  0  0  0
   -4.6631    3.0781    0.0000 N   0  0  0  0  0  0  0  0  0  0  0  0
   -3.1767    2.8767    0.0000 N   0  0  0  0  0  0  0  0  0  0  0  0
   -2.1401    3.9609    0.0000 C   0  0  0  0  0  0  0  0  0  0  0  0
   -0.6829    3.6053    0.0000 C   0  0  0  0  0  0  0  0  0  0  0  0
    0.3537    4.6895    0.0000 C   0  0  0  0  0  0  0  0  0  0  0  0
   -0.0669    6.1293    0.0000 C   0  0  0  0  0  0  0  0  0  0  0  0
   -1.5241    6.4849    0.0000 C   0  0  0  0  0  0  0  0  0  0  0  0
   -2.5607    5.4007    0.0000 C   0  0  0  0  0  0  0  0  0  0  0  0
   -4.0180    5.7563    0.0000 C   0  0  0  0  0  0  0  0  0  0  0  0
   -5.0546    4.6722    0.0000 C   0  0  0  0  0  0  0  0  0  0  0  0
   -6.5118    5.0278    0.0000 C   0  0  0  0  0  0  0  0  0  0  0  0
   -6.9324    6.4676    0.0000 C   0  0  0  0  0  0  0  0  0  0  0  0
   -8.3897    6.8232    0.0000 C   0  0  0  0  0  0  0  0  0  0  0  0
   -8.8103    8.2630    0.0000 O   0  0  0  0  0  0  0  0  0  0  0  0
   -9.4263    5.7390    0.0000 N   0  0  0  0  0  0  0  0  0  0  0  0
  -10.8835    6.0946    0.0000 O   0  0  0  0  0  0  0  0  0  0  0  0
   -5.8958    7.5518    0.0000 N   0  0  0  0  0  0  0  0  0  0  0  0
   -4.4386    7.1962    0.0000 C   0  0  0  0  0  0  0  0  0  0  0  0
   -3.4020    8.2804    0.0000 O   0  0  0  0  0  0  0  0  0  0  0  0
   -1.5574   -0.7500    0.0000 N   0  0  0  0  0  0  0  0  0  0  0  0
   -0.3846   -1.6852    0.0000 C   0  0  0  0  0  0  0  0  0  0  0  0
   -0.7184   -3.1476    0.0000 O   0  0  0  0  0  0  0  0  0  0  0  0
    1.0777   -1.3515    0.0000 C   0  0  0  0  0  0  0  0  0  0  0  0
  1  2  1  0
  2  3  2  0
  3  4  1  0
  4  5  2  0
  5  6  1  0
  6  7  2  0
  7  8  1  0
  8  9  2  0
  9 10  1  0
 10 11  1  0
 11 12  1  0
 12 13  1  0
 13 14  1  0
 14 15  1  0
 15 16  1  0
 16 17  1  0
 17 18  2  0
 18 19  1  0
 19 20  2  0
 20 21  1  0
 21 22  2  0
 21 23  1  0
 23 24  1  0
 20 25  1  0
 25 26  1  0
 26 27  2  0
  5 28  1  0
 28 29  1  0
 29 30  2  0
 29 31  1  0
 31  2  1  0
 10  6  1  0
 16 11  1  0
 26 17  1  0
M  END
>  <Title>  (1520) 
idACGLgen8

$$$$

     RDKit          2D

 15 16  0  0  0  0  0  0  0  0999 V2000
    2.7516    6.1053    0.0000 C   0  0  0  0  0  0  0  0  0  0  0  0
    1.8836    4.8820    0.0000 C   0  0  0  0  0  0  0  0  0  0  0  0
    2.6816    3.6119    0.0000 C   0  0  0  0  0  0  0  0  0  0  0  0
    2.3478    2.1495    0.0000 C   0  0  0  0  0  0  0  0  0  0  0  0
    1.0777    1.3515    0.0000 C   0  0  0  0  0  0  0  0  0  0  0  0
    1.7286    0.0000    0.0000 C   0  0  0  0  0  0  0  0  0  0  0  0
    1.0777   -1.3515    0.0000 C   0  0  0  0  0  0  0  0  0  0  0  0
   -0.3846   -1.6852    0.0000 C   0  0  0  0  0  0  0  0  0  0  0  0
   -1.5574   -0.7500    0.0000 C   0  0  0  0  0  0  0  0  0  0  0  0
   -1.5574    0.7500    0.0000 C   0  0  0  0  0  0  0  0  0  0  0  0
   -0.3846    1.6852    0.0000 C   0  0  0  0  0  0  0  0  0  0  0  0
   -1.1827    2.9553    0.0000 C   0  0  0  0  0  0  0  0  0  0  0  0
   -0.8489    4.4177    0.0000 N   0  0  0  0  0  0  0  0  0  0  0  0
    0.4212    5.2158    0.0000 C   0  0  0  0  0  0  0  0  0  0  0  0
    0.1699    6.6946    0.0000 O   0  0  0  0  0  0  0  0  0  0  0  0
  1  2  1  0
  2  3  2  0
  3  4  1  0
  4  5  2  0
  5  6  1  0
  6  7  2  0
  7  8  1  0
  8  9  2  0
  9 10  1  0
 10 11  2  0
 11 12  1  0
 12 13  1  0
 13 14  1  0
 14 15  2  0
 14  2  1  0
 11  5  1  0
M  END
>  <Title>  (1521) 
idACGMgen8

$$$$

     RDKit          2D

 11 11  0  0  0  0  0  0  0  0999 V2000
    3.9786   -1.2990    0.0000 C   0  0  0  0  0  0  0  0  0  0  0  0
    3.2286   -0.0000    0.0000 O   0  0  0  0  0  0  0  0  0  0  0  0
    1.7286    0.0000    0.0000 C   0  0  0  0  0  0  0  0  0  0  0  0
    1.0777    1.3515    0.0000 C   0  0  0  0  0  0  0  0  0  0  0  0
   -0.3846    1.6852    0.0000 C   0  0  0  0  0  0  0  0  0  0  0  0
   -1.5574    0.7500    0.0000 C   0  0  0  0  0  0  0  0  0  0  0  0
   -1.5574   -0.7500    0.0000 C   0  0  0  0  0  0  0  0  0  0  0  0
   -2.9088   -1.4008    0.0000 F   0  0  0  0  0  0  0  0  0  0  0  0
   -0.3846   -1.6852    0.0000 C   0  0  0  0  0  0  0  0  0  0  0  0
   -0.7184   -3.1476    0.0000 F   0  0  0  0  0  0  0  0  0  0  0  0
    1.0777   -1.3515    0.0000 C   0  0  0  0  0  0  0  0  0  0  0  0
  1  2  1  0
  2  3  1  0
  3  4  2  0
  4  5  1  0
  5  6  2  0
  6  7  2  0
  7  8  1  0
  7  9  1  0
  9 10  1  0
  9 11  1  0
 11  3  1  0
M  END
>  <Title>  (1522) 
idACGNgen8

$$$$

     RDKit          2D

 16 16  0  0  0  0  0  0  0  0999 V2000
    4.8705    0.0000    0.0000 C   0  0  0  0  0  0  0  0  0  0  0  0
    3.3705    0.0000    0.0000 C   0  0  0  0  0  0  0  0  0  0  0  0
    3.0367   -1.4624    0.0000 C   0  0  0  0  0  0  0  0  0  0  0  0
    2.1015   -2.6351    0.0000 C   0  0  0  0  0  0  0  0  0  0  0  0
    0.7500   -3.2860    0.0000 C   0  0  0  0  0  0  0  0  0  0  0  0
   -0.7500   -3.2860    0.0000 C   0  0  0  0  0  0  0  0  0  0  0  0
   -2.1015   -2.6351    0.0000 C   0  0  0  0  0  0  0  0  0  0  0  0
   -3.0367   -1.4624    0.0000 C   0  0  0  0  0  0  0  0  0  0  0  0
   -3.3705    0.0000    0.0000 C   0  0  0  0  0  0  0  0  0  0  0  0
   -3.0367    1.4624    0.0000 C   0  0  0  0  0  0  0  0  0  0  0  0
   -2.1015    2.6351    0.0000 C   0  0  0  0  0  0  0  0  0  0  0  0
   -3.0367    3.8079    0.0000 F   0  0  0  0  0  0  0  0  0  0  0  0
   -0.7500    3.2860    0.0000 C   0  0  0  0  0  0  0  0  0  0  0  0
    0.7500    3.2860    0.0000 C   0  0  0  0  0  0  0  0  0  0  0  0
    2.1015    2.6351    0.0000 C   0  0  0  0  0  0  0  0  0  0  0  0
    3.0367    1.4624    0.0000 C   0  0  0  0  0  0  0  0  0  0  0  0
  1  2  1  0
  2  3  2  0
  3  4  1  0
  4  5  2  0
  5  6  1  0
  6  7  2  0
  7  8  1  0
  8  9  2  0
  9 10  1  0
 10 11  2  0
 11 12  1  0
 11 13  1  0
 13 14  2  0
 14 15  1  0
 15 16  2  0
 16  2  1  0
M  END
>  <Title>  (1523) 
idACGOgen8

$$$$

     RDKit          2D

 12 12  0  0  0  0  0  0  0  0999 V2000
    3.9271    0.0000    0.0000 C   0  0  0  0  0  0  0  0  0  0  0  0
    2.4271    0.0000    0.0000 C   0  0  0  0  0  0  0  0  0  0  0  0
    1.9635   -1.4266    0.0000 C   0  0  0  0  0  0  0  0  0  0  0  0
    0.7500   -2.3083    0.0000 C   0  0  0  0  0  0  0  0  0  0  0  0
   -0.7500   -2.3083    0.0000 C   0  0  0  0  0  0  0  0  0  0  0  0
   -1.9635   -1.4266    0.0000 C   0  0  0  0  0  0  0  0  0  0  0  0
   -2.4271    0.0000    0.0000 C   0  0  0  0  0  0  0  0  0  0  0  0
   -3.9271    0.0000    0.0000 C   0  0  0  0  0  0  0  0  0  0  0  0
   -1.9635    1.4266    0.0000 N   0  0  0  0  0  0  0  0  0  0  0  0
   -0.7500    2.3083    0.0000 N   0  0  0  0  0  0  0  0  0  0  0  0
    0.7500    2.3083    0.0000 N   0  0  0  0  0  0  0  0  0  0  0  0
    1.9635    1.4266    0.0000 N   0  0  0  0  0  0  0  0  0  0  0  0
  1  2  1  0
  2  3  2  0
  3  4  1  0
  4  5  2  0
  5  6  1  0
  6  7  2  0
  7  8  1  0
  7  9  1  0
  9 10  2  0
 10 11  1  0
 11 12  2  0
 12  2  1  0
M  END
>  <Title>  (1524) 
idACGPgen8

$$$$

     RDKit          2D

 40 45  0  0  0  0  0  0  0  0999 V2000
    3.0000    0.0000    0.0000 C   0  0  0  0  0  0  0  0  0  0  0  0
    1.5000    0.0000    0.0000 C   0  0  0  0  0  0  0  0  0  0  0  0
    0.7500   -1.2990    0.0000 C   0  0  0  0  0  0  0  0  0  0  0  0
   -0.7500   -1.2990    0.0000 C   0  0  0  0  0  0  0  0  0  0  0  0
   -1.5000    0.0000    0.0000 C   0  0  0  0  0  0  0  0  0  0  0  0
   -3.0000    0.0000    0.0000 C   0  0  0  0  0  0  0  0  0  0  0  0
   -3.8817   -1.2135    0.0000 N   0  0  0  0  0  0  0  0  0  0  0  0
   -5.3083   -0.7500    0.0000 N   0  0  0  0  0  0  0  0  0  0  0  0
   -5.3083    0.7500    0.0000 N   0  0  0  0  0  0  0  0  0  0  0  0
   -3.8817    1.2135    0.0000 N   0  0  0  0  0  0  0  0  0  0  0  0
   -3.4182    2.6401    0.0000 C   0  0  0  0  0  0  0  0  0  0  0  0
   -1.9509    2.9520    0.0000 C   0  0  0  0  0  0  0  0  0  0  0  0
   -1.4874    4.3786    0.0000 C   0  0  0  0  0  0  0  0  0  0  0  0
   -2.4911    5.4933    0.0000 C   0  0  0  0  0  0  0  0  0  0  0  0
   -2.0276    6.9199    0.0000 C   0  0  0  0  0  0  0  0  0  0  0  0
   -3.0313    8.0346    0.0000 O   0  0  0  0  0  0  0  0  0  0  0  0
   -0.5604    7.2317    0.0000 N   0  0  0  0  0  0  0  0  0  0  0  0
   -0.0968    8.6583    0.0000 C   0  0  0  0  0  0  0  0  0  0  0  0
   -0.9785    9.8718    0.0000 N   0  0  0  0  0  0  0  0  0  0  0  0
   -0.0968   11.0854    0.0000 N   0  0  0  0  0  0  0  0  0  0  0  0
    1.3298   10.6218    0.0000 N   0  0  0  0  0  0  0  0  0  0  0  0
    1.3298    9.1218    0.0000 N   0  0  0  0  0  0  0  0  0  0  0  0
    2.5433    8.2402    0.0000 C   0  0  0  0  0  0  0  0  0  0  0  0
    2.3865    6.7484    0.0000 C   0  0  0  0  0  0  0  0  0  0  0  0
    3.6000    5.8667    0.0000 C   0  0  0  0  0  0  0  0  0  0  0  0
    4.9703    6.4768    0.0000 C   0  0  0  0  0  0  0  0  0  0  0  0
    5.1271    7.9686    0.0000 C   0  0  0  0  0  0  0  0  0  0  0  0
    3.9136    8.8503    0.0000 C   0  0  0  0  0  0  0  0  0  0  0  0
   -3.9583    5.1814    0.0000 C   0  0  0  0  0  0  0  0  0  0  0  0
   -4.4218    3.7548    0.0000 C   0  0  0  0  0  0  0  0  0  0  0  0
   -5.8891    3.4430    0.0000 C   0  0  0  0  0  0  0  0  0  0  0  0
   -6.8928    4.5577    0.0000 C   0  0  0  0  0  0  0  0  0  0  0  0
   -8.3600    4.2458    0.0000 C   0  0  0  0  0  0  0  0  0  0  0  0
   -8.8235    2.8192    0.0000 C   0  0  0  0  0  0  0  0  0  0  0  0
  -10.2907    2.5074    0.0000 C   0  0  0  0  0  0  0  0  0  0  0  0
   -7.8198    1.7045    0.0000 C   0  0  0  0  0  0  0  0  0  0  0  0
   -8.2833    0.2779    0.0000 O   0  0  0  0  0  0  0  0  0  0  0  0
   -6.3526    2.0164    0.0000 N   0  0  0  0  0  0  0  0  0  0  0  0
   -0.7500    1.2990    0.0000 N   0  0  0  0  0  0  0  0  0  0  0  0
    0.7500    1.2990    0.0000 C   0  0  0  0  0  0  0  0  0  0  0  0
  1  2  1  0
  2  3  2  0
  3  4  1  0
  4  5  2  0
  5  6  1  0
  6  7  2  0
  7  8  1  0
  8  9  2  0
  9 10  1  0
 10 11  1  0
 11 12  2  0
 12 13  1  0
 13 14  2  0
 14 15  1  0
 15 16  2  0
 15 17  1  0
 17 18  1  0
 18 19  2  0
 19 20  1  0
 20 21  2  0
 21 22  1  0
 22 23  1  0
 23 24  2  0
 24 25  1  0
 25 26  2  0
 26 27  1  0
 27 28  2  0
 14 29  1  0
 29 30  2  0
 30 31  1  0
 31 32  2  0
 32 33  1  0
 33 34  2  0
 34 35  1  0
 34 36  1  0
 36 37  2  0
 36 38  1  0
  5 39  1  0
 39 40  1  0
 40  2  1  0
 10  6  1  0
 30 11  1  0
 38 31  1  0
 22 18  1  0
 28 23  1  0
M  END
>  <Title>  (1525) 
idACGQgen8

$$$$

     RDKit          2D

 14 14  0  0  0  0  0  0  0  0999 V2000
    4.6339    0.0000    0.0000 C   0  0  0  0  0  0  0  0  0  0  0  0
    3.1339    0.0000    0.0000 C   0  0  0  0  0  0  0  0  0  0  0  0
    2.7750    1.4564    0.0000 C   0  0  0  0  0  0  0  0  0  0  0  0
    1.7803    2.5792    0.0000 C   0  0  0  0  0  0  0  0  0  0  0  0
    0.3778    3.1111    0.0000 C   0  0  0  0  0  0  0  0  0  0  0  0
   -1.1113    2.9303    0.0000 C   0  0  0  0  0  0  0  0  0  0  0  0
   -2.3458    2.0782    0.0000 C   0  0  0  0  0  0  0  0  0  0  0  0
   -3.0429    0.7500    0.0000 C   0  0  0  0  0  0  0  0  0  0  0  0
   -3.0429   -0.7500    0.0000 C   0  0  0  0  0  0  0  0  0  0  0  0
   -2.3458   -2.0782    0.0000 C   0  0  0  0  0  0  0  0  0  0  0  0
   -1.1113   -2.9303    0.0000 C   0  0  0  0  0  0  0  0  0  0  0  0
    0.3778   -3.1111    0.0000 C   0  0  0  0  0  0  0  0  0  0  0  0
    1.7803   -2.5792    0.0000 C   0  0  0  0  0  0  0  0  0  0  0  0
    2.7750   -1.4564    0.0000 N   0  0  0  0  0  0  0  0  0  0  0  0
  1  2  2  0
  2  3  1  0
  3  4  2  0
  4  5  1  0
  5  6  2  0
  6  7  1  0
  7  8  2  0
  8  9  1  0
  9 10  2  0
 10 11  1  0
 11 12  2  0
 12 13  1  0
 13 14  1  0
 14  2  1  0
M  END
>  <Title>  (1526) 
idACGRgen8

$$$$

     RDKit          2D

 44 50  0  0  0  0  0  0  0  0999 V2000
   -6.1425   10.9240    0.0000 C   0  0  0  0  0  0  0  0  0  0  0  0
   -5.7651    9.4723    0.0000 O   0  0  0  0  0  0  0  0  0  0  0  0
   -4.3191    9.0732    0.0000 C   0  0  0  0  0  0  0  0  0  0  0  0
   -3.7921    7.6688    0.0000 C   0  0  0  0  0  0  0  0  0  0  0  0
   -2.2936    7.7361    0.0000 C   0  0  0  0  0  0  0  0  0  0  0  0
   -1.8945    9.1821    0.0000 C   0  0  0  0  0  0  0  0  0  0  0  0
   -0.4902    9.7091    0.0000 C   0  0  0  0  0  0  0  0  0  0  0  0
   -0.0911   11.1551    0.0000 N   0  0  0  0  0  0  0  0  0  0  0  0
    1.4074   11.2224    0.0000 N   0  0  0  0  0  0  0  0  0  0  0  0
    1.9344    9.8180    0.0000 N   0  0  0  0  0  0  0  0  0  0  0  0
    0.7617    8.8828    0.0000 N   0  0  0  0  0  0  0  0  0  0  0  0
    0.8290    7.3843    0.0000 C   0  0  0  0  0  0  0  0  0  0  0  0
   -0.5754    6.8573    0.0000 C   0  0  0  0  0  0  0  0  0  0  0  0
   -1.4017    5.6054    0.0000 C   0  0  0  0  0  0  0  0  0  0  0  0
   -1.3344    4.1069    0.0000 C   0  0  0  0  0  0  0  0  0  0  0  0
    0.1520    3.9056    0.0000 C   0  0  0  0  0  0  0  0  0  0  0  0
    0.9784    5.1574    0.0000 O   0  0  0  0  0  0  0  0  0  0  0  0
    0.9214    2.6179    0.0000 C   0  0  0  0  0  0  0  0  0  0  0  0
    0.3943    1.2135    0.0000 N   0  0  0  0  0  0  0  0  0  0  0  0
    1.2760    0.0000    0.0000 N   0  0  0  0  0  0  0  0  0  0  0  0
    0.3943   -1.2135    0.0000 N   0  0  0  0  0  0  0  0  0  0  0  0
   -1.0323   -0.7500    0.0000 C   0  0  0  0  0  0  0  0  0  0  0  0
   -1.0323    0.7500    0.0000 C   0  0  0  0  0  0  0  0  0  0  0  0
   -2.2841    1.5763    0.0000 N   0  0  0  0  0  0  0  0  0  0  0  0
   -3.6634    0.9868    0.0000 N   0  0  0  0  0  0  0  0  0  0  0  0
   -4.6503    2.1164    0.0000 N   0  0  0  0  0  0  0  0  0  0  0  0
   -3.8810    3.4041    0.0000 N   0  0  0  0  0  0  0  0  0  0  0  0
   -2.4186    3.0703    0.0000 C   0  0  0  0  0  0  0  0  0  0  0  0
    2.4511    3.0622    0.0000 C   0  0  0  0  0  0  0  0  0  0  0  0
    3.2775    4.3140    0.0000 C   0  0  0  0  0  0  0  0  0  0  0  0
    3.2102    5.8125    0.0000 C   0  0  0  0  0  0  0  0  0  0  0  0
    4.6145    6.3396    0.0000 C   0  0  0  0  0  0  0  0  0  0  0  0
    4.8602    7.8193    0.0000 O   0  0  0  0  0  0  0  0  0  0  0  0
    5.7731    5.3869    0.0000 N   0  0  0  0  0  0  0  0  0  0  0  0
    7.1775    5.9140    0.0000 C   0  0  0  0  0  0  0  0  0  0  0  0
    8.3361    4.9613    0.0000 C   0  0  0  0  0  0  0  0  0  0  0  0
    9.7405    5.4883    0.0000 N   0  0  0  0  0  0  0  0  0  0  0  0
    9.9862    6.9681    0.0000 N   0  0  0  0  0  0  0  0  0  0  0  0
    8.8276    7.9208    0.0000 N   0  0  0  0  0  0  0  0  0  0  0  0
    7.4232    7.3937    0.0000 N   0  0  0  0  0  0  0  0  0  0  0  0
    2.2749    6.9853    0.0000 C   0  0  0  0  0  0  0  0  0  0  0  0
    3.1013    8.2371    0.0000 O   0  0  0  0  0  0  0  0  0  0  0  0
   -3.1464   10.0084    0.0000 C   0  0  0  0  0  0  0  0  0  0  0  0
   -3.2137   11.5069    0.0000 O   0  0  0  0  0  0  0  0  0  0  0  0
  1  2  1  0
  2  3  1  0
  3  4  2  0
  4  5  1  0
  5  6  2  0
  6  7  1  0
  7  8  2  0
  8  9  1  0
  9 10  2  0
 10 11  1  0
 11 12  1  0
 12 13  2  0
 13 14  1  0
 14 15  2  0
 15 16  1  0
 16 17  2  0
 16 18  1  0
 18 19  1  0
 19 20  1  0
 20 21  2  0
 21 22  1  0
 22 23  2  0
 23 24  1  0
 24 25  1  0
 25 26  2  0
 26 27  1  0
 27 28  2  0
 18 29  2  0
 29 30  1  0
 30 31  2  0
 31 32  1  0
 32 33  2  0
 32 34  1  0
 34 35  1  0
 35 36  2  0
 36 37  1  0
 37 38  2  0
 38 39  1  0
 39 40  2  0
 31 41  1  0
 41 42  2  0
  6 43  1  0
 43 44  2  0
 43  3  1  0
 11  7  1  0
 41 12  1  0
 28 15  1  0
 40 35  1  0
 23 19  1  0
 28 24  1  0
M  END
>  <Title>  (1527) 
idACGSgen8

$$$$

     RDKit          2D

 15 15  0  0  0  0  0  0  0  0999 V2000
    6.1771   -1.2990    0.0000 C   0  0  0  0  0  0  0  0  0  0  0  0
    4.6771   -1.2990    0.0000 C   0  0  0  0  0  0  0  0  0  0  0  0
    3.9271   -2.5981    0.0000 O   0  0  0  0  0  0  0  0  0  0  0  0
    3.9271    0.0000    0.0000 O   0  0  0  0  0  0  0  0  0  0  0  0
    2.4271    0.0000    0.0000 C   0  0  0  0  0  0  0  0  0  0  0  0
    1.9635   -1.4266    0.0000 C   0  0  0  0  0  0  0  0  0  0  0  0
    0.7500   -2.3083    0.0000 C   0  0  0  0  0  0  0  0  0  0  0  0
   -0.7500   -2.3083    0.0000 C   0  0  0  0  0  0  0  0  0  0  0  0
   -1.9635   -1.4266    0.0000 C   0  0  0  0  0  0  0  0  0  0  0  0
   -2.4271    0.0000    0.0000 C   0  0  0  0  0  0  0  0  0  0  0  0
   -1.9635    1.4266    0.0000 C   0  0  0  0  0  0  0  0  0  0  0  0
   -0.7500    2.3083    0.0000 C   0  0  0  0  0  0  0  0  0  0  0  0
    0.7500    2.3083    0.0000 C   0  0  0  0  0  0  0  0  0  0  0  0
    1.9635    1.4266    0.0000 C   0  0  0  0  0  0  0  0  0  0  0  0
    3.1771    2.3083    0.0000 N   0  0  0  0  0  0  0  0  0  0  0  0
  1  2  1  0
  2  3  2  0
  2  4  1  0
  4  5  1  0
  5  6  2  0
  6  7  1  0
  7  8  2  0
  8  9  1  0
  9 10  2  0
 10 11  1  0
 11 12  2  0
 12 13  1  0
 13 14  2  0
 14 15  1  0
 14  5  1  0
M  END
>  <Title>  (1528) 
idACGTgen8

$$$$
