
     RDKit          2D

 53 60  0  0  0  0  0  0  0  0999 V2000
    3.0000    0.0000    0.0000 C   0  0  0  0  0  0  0  0  0  0  0  0
    1.5000    0.0000    0.0000 C   0  0  0  0  0  0  0  0  0  0  0  0
    0.7500   -1.2990    0.0000 C   0  0  0  0  0  0  0  0  0  0  0  0
   -0.7500   -1.2990    0.0000 C   0  0  0  0  0  0  0  0  0  0  0  0
   -1.5000    0.0000    0.0000 C   0  0  0  0  0  0  0  0  0  0  0  0
   -3.0000    0.0000    0.0000 C   0  0  0  0  0  0  0  0  0  0  0  0
   -3.8817   -1.2135    0.0000 N   0  0  0  0  0  0  0  0  0  0  0  0
   -5.3083   -0.7500    0.0000 N   0  0  0  0  0  0  0  0  0  0  0  0
   -5.3083    0.7500    0.0000 N   0  0  0  0  0  0  0  0  0  0  0  0
   -3.8817    1.2135    0.0000 N   0  0  0  0  0  0  0  0  0  0  0  0
   -3.4182    2.6401    0.0000 C   0  0  0  0  0  0  0  0  0  0  0  0
   -4.2998    3.8536    0.0000 C   0  0  0  0  0  0  0  0  0  0  0  0
   -3.4182    5.0672    0.0000 C   0  0  0  0  0  0  0  0  0  0  0  0
   -1.9916    4.6036    0.0000 C   0  0  0  0  0  0  0  0  0  0  0  0
   -0.7780    5.4853    0.0000 C   0  0  0  0  0  0  0  0  0  0  0  0
    0.5923    4.8752    0.0000 O   0  0  0  0  0  0  0  0  0  0  0  0
   -0.9348    6.9771    0.0000 N   0  0  0  0  0  0  0  0  0  0  0  0
    0.2787    7.8588    0.0000 C   0  0  0  0  0  0  0  0  0  0  0  0
    1.6490    7.2487    0.0000 O   0  0  0  0  0  0  0  0  0  0  0  0
    0.1219    9.3506    0.0000 C   0  0  0  0  0  0  0  0  0  0  0  0
   -1.1771   10.1006    0.0000 N   0  0  0  0  0  0  0  0  0  0  0  0
   -0.8653   11.5678    0.0000 N   0  0  0  0  0  0  0  0  0  0  0  0
    0.6265   11.7246    0.0000 N   0  0  0  0  0  0  0  0  0  0  0  0
    1.2366   10.3543    0.0000 N   0  0  0  0  0  0  0  0  0  0  0  0
    2.7038   10.0424    0.0000 C   0  0  0  0  0  0  0  0  0  0  0  0
    3.1674    8.6158    0.0000 C   0  0  0  0  0  0  0  0  0  0  0  0
    4.6346    8.3039    0.0000 C   0  0  0  0  0  0  0  0  0  0  0  0
    5.6383    9.4187    0.0000 C   0  0  0  0  0  0  0  0  0  0  0  0
    5.1748   10.8452    0.0000 C   0  0  0  0  0  0  0  0  0  0  0  0
    3.7075   11.1571    0.0000 C   0  0  0  0  0  0  0  0  0  0  0  0
    3.2440   12.5837    0.0000 C   0  0  0  0  0  0  0  0  0  0  0  0
    1.8174   13.0472    0.0000 C   0  0  0  0  0  0  0  0  0  0  0  0
    1.8174   14.5472    0.0000 C   0  0  0  0  0  0  0  0  0  0  0  0
    3.2440   15.0107    0.0000 C   0  0  0  0  0  0  0  0  0  0  0  0
    3.7075   16.4373    0.0000 C   0  0  0  0  0  0  0  0  0  0  0  0
    5.1748   16.7492    0.0000 C   0  0  0  0  0  0  0  0  0  0  0  0
    5.6383   18.1758    0.0000 C   0  0  0  0  0  0  0  0  0  0  0  0
    4.6346   19.2905    0.0000 C   0  0  0  0  0  0  0  0  0  0  0  0
    3.1674   18.9786    0.0000 C   0  0  0  0  0  0  0  0  0  0  0  0
    2.7038   17.5520    0.0000 C   0  0  0  0  0  0  0  0  0  0  0  0
    1.2366   17.2402    0.0000 C   0  0  0  0  0  0  0  0  0  0  0  0
    0.2329   18.3549    0.0000 C   0  0  0  0  0  0  0  0  0  0  0  0
   -1.2343   18.0430    0.0000 C   0  0  0  0  0  0  0  0  0  0  0  0
   -1.6978   16.6164    0.0000 C   0  0  0  0  0  0  0  0  0  0  0  0
   -0.6941   15.5017    0.0000 C   0  0  0  0  0  0  0  0  0  0  0  0
    0.7731   15.8136    0.0000 C   0  0  0  0  0  0  0  0  0  0  0  0
    4.1257   13.7972    0.0000 C   0  0  0  0  0  0  0  0  0  0  0  0
    5.6257   13.7972    0.0000 O   0  0  0  0  0  0  0  0  0  0  0  0
   -1.9916    3.1036    0.0000 C   0  0  0  0  0  0  0  0  0  0  0  0
   -0.7780    2.2220    0.0000 O   0  0  0  0  0  0  0  0  0  0  0  0
   -0.7500    1.2990    0.0000 N   0  0  0  0  0  0  0  0  0  0  0  0
    0.7500    1.2990    0.0000 C   0  0  0  0  0  0  0  0  0  0  0  0
    1.5000    2.5981    0.0000 O   0  0  0  0  0  0  0  0  0  0  0  0
  1  2  1  0
  2  3  2  0
  3  4  1  0
  4  5  2  0
  5  6  1  0
  6  7  2  0
  7  8  1  0
  8  9  2  0
  9 10  1  0
 10 11  1  0
 11 12  2  0
 12 13  1  0
 13 14  2  0
 14 15  1  0
 15 16  2  0
 15 17  1  0
 17 18  1  0
 18 19  2  0
 18 20  1  0
 20 21  2  0
 21 22  1  0
 22 23  2  0
 23 24  1  0
 24 25  1  0
 25 26  2  0
 26 27  1  0
 27 28  2  0
 28 29  1  0
 29 30  2  0
 30 31  1  0
 31 32  2  0
 32 33  1  0
 33 34  2  0
 34 35  1  0
 35 36  2  0
 36 37  1  0
 37 38  2  0
 38 39  1  0
 39 40  2  0
 40 41  1  0
 41 42  2  0
 42 43  1  0
 43 44  2  0
 44 45  1  0
 45 46  2  0
 34 47  1  0
 47 48  2  0
 14 49  1  0
 49 50  2  0
  5 51  1  0
 51 52  1  0
 52 53  2  0
 52  2  1  0
 10  6  1  0
 49 11  1  0
 24 20  1  0
 30 25  1  0
 47 31  1  0
 40 35  1  0
 46 41  1  0
M  END
>  <Title>  (1) 
idACMNgen10

$$$$

     RDKit          2D

 49 56  0  0  0  0  0  0  0  0999 V2000
    3.0000    0.0000    0.0000 C   0  0  0  0  0  0  0  0  0  0  0  0
    1.5000    0.0000    0.0000 C   0  0  0  0  0  0  0  0  0  0  0  0
    0.7500    1.2990    0.0000 C   0  0  0  0  0  0  0  0  0  0  0  0
   -0.7500    1.2990    0.0000 C   0  0  0  0  0  0  0  0  0  0  0  0
   -1.5000    0.0000    0.0000 C   0  0  0  0  0  0  0  0  0  0  0  0
   -3.0000    0.0000    0.0000 C   0  0  0  0  0  0  0  0  0  0  0  0
   -3.8817   -1.2135    0.0000 N   0  0  0  0  0  0  0  0  0  0  0  0
   -5.3083   -0.7500    0.0000 N   0  0  0  0  0  0  0  0  0  0  0  0
   -5.3083    0.7500    0.0000 N   0  0  0  0  0  0  0  0  0  0  0  0
   -3.8817    1.2135    0.0000 N   0  0  0  0  0  0  0  0  0  0  0  0
   -3.4182    2.6401    0.0000 C   0  0  0  0  0  0  0  0  0  0  0  0
   -1.9509    2.9520    0.0000 C   0  0  0  0  0  0  0  0  0  0  0  0
   -1.4874    4.3786    0.0000 C   0  0  0  0  0  0  0  0  0  0  0  0
   -2.4911    5.4933    0.0000 C   0  0  0  0  0  0  0  0  0  0  0  0
   -3.9583    5.1814    0.0000 C   0  0  0  0  0  0  0  0  0  0  0  0
   -4.4218    3.7548    0.0000 C   0  0  0  0  0  0  0  0  0  0  0  0
   -5.8891    3.4430    0.0000 C   0  0  0  0  0  0  0  0  0  0  0  0
   -6.4992    2.0726    0.0000 C   0  0  0  0  0  0  0  0  0  0  0  0
   -7.9910    2.2294    0.0000 C   0  0  0  0  0  0  0  0  0  0  0  0
   -8.3028    3.6967    0.0000 C   0  0  0  0  0  0  0  0  0  0  0  0
   -9.6731    4.3068    0.0000 C   0  0  0  0  0  0  0  0  0  0  0  0
  -10.9722    3.5568    0.0000 N   0  0  0  0  0  0  0  0  0  0  0  0
  -12.0869    4.5605    0.0000 N   0  0  0  0  0  0  0  0  0  0  0  0
  -11.4768    5.9308    0.0000 N   0  0  0  0  0  0  0  0  0  0  0  0
   -9.9850    5.7740    0.0000 N   0  0  0  0  0  0  0  0  0  0  0  0
   -8.9813    6.8887    0.0000 C   0  0  0  0  0  0  0  0  0  0  0  0
   -7.5141    6.5768    0.0000 C   0  0  0  0  0  0  0  0  0  0  0  0
   -6.5104    7.6915    0.0000 C   0  0  0  0  0  0  0  0  0  0  0  0
   -6.9739    9.1181    0.0000 C   0  0  0  0  0  0  0  0  0  0  0  0
   -8.4411    9.4300    0.0000 C   0  0  0  0  0  0  0  0  0  0  0  0
   -9.4448    8.3153    0.0000 C   0  0  0  0  0  0  0  0  0  0  0  0
  -10.9121    8.6272    0.0000 C   0  0  0  0  0  0  0  0  0  0  0  0
  -11.9158    7.5124    0.0000 C   0  0  0  0  0  0  0  0  0  0  0  0
  -13.3830    7.8243    0.0000 C   0  0  0  0  0  0  0  0  0  0  0  0
  -13.8465    9.2509    0.0000 C   0  0  0  0  0  0  0  0  0  0  0  0
  -12.8428   10.3656    0.0000 C   0  0  0  0  0  0  0  0  0  0  0  0
  -13.3063   11.7922    0.0000 C   0  0  0  0  0  0  0  0  0  0  0  0
  -14.7736   12.1041    0.0000 C   0  0  0  0  0  0  0  0  0  0  0  0
  -15.2371   13.5306    0.0000 C   0  0  0  0  0  0  0  0  0  0  0  0
  -14.2334   14.6454    0.0000 C   0  0  0  0  0  0  0  0  0  0  0  0
  -12.7662   14.3335    0.0000 C   0  0  0  0  0  0  0  0  0  0  0  0
  -12.3026   12.9069    0.0000 C   0  0  0  0  0  0  0  0  0  0  0  0
  -11.3756   10.0537    0.0000 C   0  0  0  0  0  0  0  0  0  0  0  0
  -10.3719   11.1685    0.0000 O   0  0  0  0  0  0  0  0  0  0  0  0
   -7.0038    4.4467    0.0000 C   0  0  0  0  0  0  0  0  0  0  0  0
   -6.8470    5.9384    0.0000 O   0  0  0  0  0  0  0  0  0  0  0  0
   -0.7500   -1.2990    0.0000 C   0  0  0  0  0  0  0  0  0  0  0  0
   -1.5000   -2.5981    0.0000 O   0  0  0  0  0  0  0  0  0  0  0  0
    0.7500   -1.2990    0.0000 N   0  0  0  0  0  0  0  0  0  0  0  0
  1  2  1  0
  2  3  2  0
  3  4  1  0
  4  5  2  0
  5  6  1  0
  6  7  2  0
  7  8  1  0
  8  9  2  0
  9 10  1  0
 10 11  1  0
 11 12  2  0
 12 13  1  0
 13 14  2  0
 14 15  1  0
 15 16  2  0
 16 17  1  0
 17 18  2  0
 18 19  1  0
 19 20  2  0
 20 21  1  0
 21 22  2  0
 22 23  1  0
 23 24  2  0
 24 25  1  0
 25 26  1  0
 26 27  2  0
 27 28  1  0
 28 29  2  0
 29 30  1  0
 30 31  2  0
 31 32  1  0
 32 33  2  0
 33 34  1  0
 34 35  2  0
 35 36  1  0
 36 37  1  0
 37 38  2  0
 38 39  1  0
 39 40  2  0
 40 41  1  0
 41 42  2  0
 36 43  1  0
 43 44  2  0
 20 45  1  0
 45 46  2  0
  5 47  1  0
 47 48  2  0
 47 49  1  0
 49  2  1  0
 10  6  1  0
 16 11  1  0
 45 17  1  0
 25 21  1  0
 31 26  1  0
 43 32  1  0
 42 37  1  0
M  END
>  <Title>  (2) 
idABIXgen10

$$$$

     RDKit          2D

 63 72  0  0  0  0  0  0  0  0999 V2000
  -14.8793   -5.3795    0.0000 C   0  0  0  0  0  0  0  0  0  0  0  0
  -13.5311   -4.7219    0.0000 C   0  0  0  0  0  0  0  0  0  0  0  0
  -13.4265   -3.2256    0.0000 C   0  0  0  0  0  0  0  0  0  0  0  0
  -12.0783   -2.5680    0.0000 C   0  0  0  0  0  0  0  0  0  0  0  0
  -10.8347   -3.4068    0.0000 C   0  0  0  0  0  0  0  0  0  0  0  0
   -9.4865   -2.7492    0.0000 C   0  0  0  0  0  0  0  0  0  0  0  0
   -9.2261   -1.2720    0.0000 N   0  0  0  0  0  0  0  0  0  0  0  0
   -7.7407   -1.0633    0.0000 N   0  0  0  0  0  0  0  0  0  0  0  0
   -7.0831   -2.4115    0.0000 N   0  0  0  0  0  0  0  0  0  0  0  0
   -8.1621   -3.4535    0.0000 N   0  0  0  0  0  0  0  0  0  0  0  0
   -7.9534   -4.9389    0.0000 C   0  0  0  0  0  0  0  0  0  0  0  0
   -9.1354   -5.8623    0.0000 C   0  0  0  0  0  0  0  0  0  0  0  0
   -8.9266   -7.3477    0.0000 C   0  0  0  0  0  0  0  0  0  0  0  0
   -7.5358   -7.9097    0.0000 C   0  0  0  0  0  0  0  0  0  0  0  0
   -6.3538   -6.9862    0.0000 C   0  0  0  0  0  0  0  0  0  0  0  0
   -6.5626   -5.5008    0.0000 C   0  0  0  0  0  0  0  0  0  0  0  0
   -5.3806   -4.5773    0.0000 C   0  0  0  0  0  0  0  0  0  0  0  0
   -5.8936   -3.1677    0.0000 C   0  0  0  0  0  0  0  0  0  0  0  0
   -5.4801   -1.7258    0.0000 C   0  0  0  0  0  0  0  0  0  0  0  0
   -4.2981   -0.8023    0.0000 C   0  0  0  0  0  0  0  0  0  0  0  0
   -4.8112    0.6072    0.0000 C   0  0  0  0  0  0  0  0  0  0  0  0
   -6.2530    1.0206    0.0000 N   0  0  0  0  0  0  0  0  0  0  0  0
   -6.3054    2.5197    0.0000 N   0  0  0  0  0  0  0  0  0  0  0  0
   -4.8959    3.0328    0.0000 N   0  0  0  0  0  0  0  0  0  0  0  0
   -3.9724    1.8507    0.0000 N   0  0  0  0  0  0  0  0  0  0  0  0
   -2.4733    1.9031    0.0000 C   0  0  0  0  0  0  0  0  0  0  0  0
   -1.6784    0.6310    0.0000 C   0  0  0  0  0  0  0  0  0  0  0  0
   -0.1793    0.6834    0.0000 C   0  0  0  0  0  0  0  0  0  0  0  0
    0.5249    2.0078    0.0000 C   0  0  0  0  0  0  0  0  0  0  0  0
   -0.2700    3.2799    0.0000 C   0  0  0  0  0  0  0  0  0  0  0  0
   -1.7691    3.2275    0.0000 C   0  0  0  0  0  0  0  0  0  0  0  0
   -2.5640    4.4996    0.0000 C   0  0  0  0  0  0  0  0  0  0  0  0
   -4.0630    4.4472    0.0000 C   0  0  0  0  0  0  0  0  0  0  0  0
   -4.8579    5.7193    0.0000 C   0  0  0  0  0  0  0  0  0  0  0  0
   -4.1537    7.0437    0.0000 N   0  0  0  0  0  0  0  0  0  0  0  0
   -2.6546    7.0961    0.0000 N   0  0  0  0  0  0  0  0  0  0  0  0
   -1.8597    5.8240    0.0000 C   0  0  0  0  0  0  0  0  0  0  0  0
   -0.3607    5.8764    0.0000 C   0  0  0  0  0  0  0  0  0  0  0  0
    0.3436    7.2008    0.0000 C   0  0  0  0  0  0  0  0  0  0  0  0
    1.8426    7.2531    0.0000 C   0  0  0  0  0  0  0  0  0  0  0  0
    2.6375    5.9811    0.0000 C   0  0  0  0  0  0  0  0  0  0  0  0
    1.9333    4.6566    0.0000 C   0  0  0  0  0  0  0  0  0  0  0  0
    0.4342    4.6043    0.0000 C   0  0  0  0  0  0  0  0  0  0  0  0
   -2.7990   -0.7500    0.0000 C   0  0  0  0  0  0  0  0  0  0  0  0
   -3.3121   -2.1595    0.0000 C   0  0  0  0  0  0  0  0  0  0  0  0
   -2.7990   -3.5691    0.0000 C   0  0  0  0  0  0  0  0  0  0  0  0
   -1.5000   -4.3191    0.0000 C   0  0  0  0  0  0  0  0  0  0  0  0
   -2.6379   -5.3637    0.0000 C   0  0  0  0  0  0  0  0  0  0  0  0
   -2.1249   -6.7733    0.0000 O   0  0  0  0  0  0  0  0  0  0  0  0
   -4.1370   -5.4161    0.0000 N   0  0  0  0  0  0  0  0  0  0  0  0
   -0.0228   -4.0586    0.0000 C   0  0  0  0  0  0  0  0  0  0  0  0
    0.7272   -5.3576    0.0000 O   0  0  0  0  0  0  0  0  0  0  0  0
    0.9414   -2.9095    0.0000 N   0  0  0  0  0  0  0  0  0  0  0  0
    0.7500   -1.2990    0.0000 C   0  0  0  0  0  0  0  0  0  0  0  0
    1.5000    0.0000    0.0000 N   0  0  0  0  0  0  0  0  0  0  0  0
    0.7500    1.2990    0.0000 N   0  0  0  0  0  0  0  0  0  0  0  0
   -0.7500    1.2990    0.0000 N   0  0  0  0  0  0  0  0  0  0  0  0
   -1.5000    0.0000    0.0000 N   0  0  0  0  0  0  0  0  0  0  0  0
   -0.7500   -1.2990    0.0000 C   0  0  0  0  0  0  0  0  0  0  0  0
   -1.5000   -2.5981    0.0000 O   0  0  0  0  0  0  0  0  0  0  0  0
  -10.9394   -4.9031    0.0000 C   0  0  0  0  0  0  0  0  0  0  0  0
   -9.9357   -6.0179    0.0000 O   0  0  0  0  0  0  0  0  0  0  0  0
  -12.2876   -5.5607    0.0000 N   0  0  0  0  0  0  0  0  0  0  0  0
  1  2  1  0
  2  3  2  0
  3  4  1  0
  4  5  2  0
  5  6  1  0
  6  7  2  0
  7  8  1  0
  8  9  2  0
  9 10  1  0
 10 11  1  0
 11 12  2  0
 12 13  1  0
 13 14  2  0
 14 15  1  0
 15 16  2  0
 16 17  1  0
 17 18  2  0
 18 19  1  0
 19 20  2  0
 20 21  1  0
 21 22  2  0
 22 23  1  0
 23 24  2  0
 24 25  1  0
 25 26  1  0
 26 27  2  0
 27 28  1  0
 28 29  2  0
 29 30  1  0
 30 31  2  0
 31 32  1  0
 32 33  2  0
 33 34  1  0
 34 35  2  0
 35 36  1  0
 36 37  2  0
 37 38  1  0
 38 39  2  0
 39 40  1  0
 40 41  2  0
 41 42  1  0
 42 43  2  0
 20 44  1  0
 44 45  2  0
 45 46  1  0
 46 47  2  0
 47 48  1  0
 48 49  2  0
 48 50  1  0
 47 51  1  0
 51 52  2  0
 51 53  1  0
 53 54  1  0
 54 55  2  0
 55 56  1  0
 56 57  2  0
 57 58  1  0
 58 59  1  0
 59 60  2  0
  5 61  1  0
 61 62  2  0
 61 63  1  0
 63  2  1  0
 10  6  1  0
 16 11  1  0
 50 17  1  0
 59 54  1  0
 25 21  1  0
 31 26  1  0
 37 32  1  0
 43 38  1  0
 58 44  1  0
M  END
>  <Title>  (3) 
idAAHEgen10

$$$$

     RDKit          2D

 58 65  0  0  0  0  0  0  0  0999 V2000
   -0.3065    6.8360    0.0000 C   0  0  0  0  0  0  0  0  0  0  0  0
   -1.0327    5.5235    0.0000 C   0  0  0  0  0  0  0  0  0  0  0  0
   -2.4319    6.0643    0.0000 C   0  0  0  0  0  0  0  0  0  0  0  0
   -3.9250    6.2075    0.0000 C   0  0  0  0  0  0  0  0  0  0  0  0
   -3.5992    4.9453    0.0000 C   0  0  0  0  0  0  0  0  0  0  0  0
   -2.8551    3.6429    0.0000 C   0  0  0  0  0  0  0  0  0  0  0  0
   -2.4901    2.1880    0.0000 C   0  0  0  0  0  0  0  0  0  0  0  0
   -2.5310    0.6886    0.0000 C   0  0  0  0  0  0  0  0  0  0  0  0
   -3.9908    1.0337    0.0000 C   0  0  0  0  0  0  0  0  0  0  0  0
   -5.3033    1.7600    0.0000 C   0  0  0  0  0  0  0  0  0  0  0  0
   -6.3711    2.8133    0.0000 C   0  0  0  0  0  0  0  0  0  0  0  0
   -7.5601    1.8989    0.0000 C   0  0  0  0  0  0  0  0  0  0  0  0
   -7.3626    0.4119    0.0000 O   0  0  0  0  0  0  0  0  0  0  0  0
   -8.9466    2.4713    0.0000 N   0  0  0  0  0  0  0  0  0  0  0  0
  -10.1356    1.5568    0.0000 C   0  0  0  0  0  0  0  0  0  0  0  0
  -11.5221    2.1292    0.0000 C   0  0  0  0  0  0  0  0  0  0  0  0
  -12.7110    1.2148    0.0000 C   0  0  0  0  0  0  0  0  0  0  0  0
  -12.5136   -0.2722    0.0000 C   0  0  0  0  0  0  0  0  0  0  0  0
  -11.1271   -0.8446    0.0000 C   0  0  0  0  0  0  0  0  0  0  0  0
   -9.9381    0.0699    0.0000 C   0  0  0  0  0  0  0  0  0  0  0  0
   -7.1152    4.1158    0.0000 C   0  0  0  0  0  0  0  0  0  0  0  0
   -7.4803    5.5707    0.0000 C   0  0  0  0  0  0  0  0  0  0  0  0
   -7.4393    7.0701    0.0000 C   0  0  0  0  0  0  0  0  0  0  0  0
   -5.9796    6.7249    0.0000 N   0  0  0  0  0  0  0  0  0  0  0  0
   -4.6671    5.9987    0.0000 C   0  0  0  0  0  0  0  0  0  0  0  0
   -3.7689    7.2001    0.0000 O   0  0  0  0  0  0  0  0  0  0  0  0
   -6.9953    8.5029    0.0000 C   0  0  0  0  0  0  0  0  0  0  0  0
   -8.3217    9.2034    0.0000 N   0  0  0  0  0  0  0  0  0  0  0  0
   -8.6011   10.6771    0.0000 N   0  0  0  0  0  0  0  0  0  0  0  0
   -7.6230   11.8144    0.0000 N   0  0  0  0  0  0  0  0  0  0  0  0
   -6.1240   11.7588    0.0000 N   0  0  0  0  0  0  0  0  0  0  0  0
   -5.0574   10.7563    0.0000 C   0  0  0  0  0  0  0  0  0  0  0  0
   -3.7072   11.4097    0.0000 C   0  0  0  0  0  0  0  0  0  0  0  0
   -2.2308   11.6747    0.0000 C   0  0  0  0  0  0  0  0  0  0  0  0
   -0.7377   11.5315    0.0000 C   0  0  0  0  0  0  0  0  0  0  0  0
    0.6615   10.9907    0.0000 C   0  0  0  0  0  0  0  0  0  0  0  0
    1.8628   10.0926    0.0000 C   0  0  0  0  0  0  0  0  0  0  0  0
    2.9162   11.1605    0.0000 O   0  0  0  0  0  0  0  0  0  0  0  0
    2.7773    8.9036    0.0000 N   0  0  0  0  0  0  0  0  0  0  0  0
    3.3371    7.5120    0.0000 C   0  0  0  0  0  0  0  0  0  0  0  0
    4.7920    7.8770    0.0000 O   0  0  0  0  0  0  0  0  0  0  0  0
    3.5007    6.0209    0.0000 C   0  0  0  0  0  0  0  0  0  0  0  0
    4.6600    5.0690    0.0000 C   0  0  0  0  0  0  0  0  0  0  0  0
    3.2559    4.5410    0.0000 C   0  0  0  0  0  0  0  0  0  0  0  0
    2.6210    3.1820    0.0000 C   0  0  0  0  0  0  0  0  0  0  0  0
    1.6429    2.0448    0.0000 C   0  0  0  0  0  0  0  0  0  0  0  0
    1.0831    3.4364    0.0000 C   0  0  0  0  0  0  0  0  0  0  0  0
    0.1686    4.6254    0.0000 C   0  0  0  0  0  0  0  0  0  0  0  0
    0.3943    1.2135    0.0000 C   0  0  0  0  0  0  0  0  0  0  0  0
    1.2760    0.0000    0.0000 N   0  0  0  0  0  0  0  0  0  0  0  0
    0.3943   -1.2135    0.0000 N   0  0  0  0  0  0  0  0  0  0  0  0
   -1.0323   -0.7500    0.0000 N   0  0  0  0  0  0  0  0  0  0  0  0
   -1.0323    0.7500    0.0000 N   0  0  0  0  0  0  0  0  0  0  0  0
   -0.8150   10.7258    0.0000 C   0  0  0  0  0  0  0  0  0  0  0  0
   -2.3081   10.8690    0.0000 C   0  0  0  0  0  0  0  0  0  0  0  0
   -2.6533    9.4092    0.0000 C   0  0  0  0  0  0  0  0  0  0  0  0
   -6.1812    9.7628    0.0000 C   0  0  0  0  0  0  0  0  0  0  0  0
   -7.3185   10.7408    0.0000 O   0  0  0  0  0  0  0  0  0  0  0  0
  1  2  1  0
  2  3  1  0
  3  4  2  0
  4  5  1  0
  5  6  2  0
  6  7  1  0
  7  8  2  0
  8  9  1  0
  9 10  2  0
 10 11  1  0
 11 12  1  0
 12 13  2  0
 12 14  1  0
 14 15  1  0
 15 16  2  0
 16 17  1  0
 17 18  2  0
 18 19  1  0
 19 20  2  0
 11 21  2  0
 21 22  1  0
 22 23  2  0
 23 24  1  0
 24 25  1  0
 25 26  2  0
 23 27  1  0
 27 28  2  0
 28 29  1  0
 29 30  2  0
 30 31  1  0
 31 32  2  0
 32 33  1  0
 33 34  2  0
 34 35  1  0
 35 36  2  0
 36 37  1  0
 37 38  2  0
 37 39  1  0
 39 40  1  0
 40 41  2  0
 40 42  1  0
 42 43  2  0
 43 44  1  0
 44 45  2  0
 45 46  1  0
 46 47  2  0
 47 48  1  0
 46 49  1  0
 49 50  2  0
 50 51  1  0
 51 52  2  0
 52 53  1  0
 36 54  1  0
 54 55  1  0
 55 56  1  0
 32 57  1  0
 57 58  2  0
 48  2  2  0
 53 49  1  0
 25  5  1  0
 57 27  1  0
 53  8  1  0
 20 15  1  0
 55 33  1  0
 44 42  1  0
M  END
>  <Title>  (4) 
idACAFgen6

$$$$

     RDKit          2D

 61 69  0  0  0  0  0  0  0  0999 V2000
  -11.6469    6.2593    0.0000 C   0  0  0  0  0  0  0  0  0  0  0  0
  -10.3748    7.0542    0.0000 C   0  0  0  0  0  0  0  0  0  0  0  0
  -10.4272    8.5533    0.0000 C   0  0  0  0  0  0  0  0  0  0  0  0
   -9.1551    9.3482    0.0000 C   0  0  0  0  0  0  0  0  0  0  0  0
   -7.8307    8.6440    0.0000 C   0  0  0  0  0  0  0  0  0  0  0  0
   -6.5586    9.4389    0.0000 C   0  0  0  0  0  0  0  0  0  0  0  0
   -6.4540   10.9352    0.0000 N   0  0  0  0  0  0  0  0  0  0  0  0
   -4.9985   11.2981    0.0000 N   0  0  0  0  0  0  0  0  0  0  0  0
   -4.2037   10.0260    0.0000 N   0  0  0  0  0  0  0  0  0  0  0  0
   -5.1678    8.8769    0.0000 N   0  0  0  0  0  0  0  0  0  0  0  0
   -4.8050    7.4215    0.0000 C   0  0  0  0  0  0  0  0  0  0  0  0
   -3.4142    6.8596    0.0000 C   0  0  0  0  0  0  0  0  0  0  0  0
   -3.5188    5.3632    0.0000 C   0  0  0  0  0  0  0  0  0  0  0  0
   -4.9743    5.0004    0.0000 C   0  0  0  0  0  0  0  0  0  0  0  0
   -5.5362    3.6096    0.0000 C   0  0  0  0  0  0  0  0  0  0  0  0
   -7.0216    3.4008    0.0000 C   0  0  0  0  0  0  0  0  0  0  0  0
   -7.5835    2.0101    0.0000 C   0  0  0  0  0  0  0  0  0  0  0  0
   -6.6600    0.8280    0.0000 C   0  0  0  0  0  0  0  0  0  0  0  0
   -5.1746    1.0368    0.0000 C   0  0  0  0  0  0  0  0  0  0  0  0
   -4.6127    2.4276    0.0000 C   0  0  0  0  0  0  0  0  0  0  0  0
   -3.1273    2.6363    0.0000 C   0  0  0  0  0  0  0  0  0  0  0  0
   -2.8154    4.1036    0.0000 C   0  0  0  0  0  0  0  0  0  0  0  0
   -1.6334    5.0270    0.0000 C   0  0  0  0  0  0  0  0  0  0  0  0
   -0.1343    4.9747    0.0000 C   0  0  0  0  0  0  0  0  0  0  0  0
    0.4276    6.3655    0.0000 C   0  0  0  0  0  0  0  0  0  0  0  0
   -0.3673    7.6375    0.0000 N   0  0  0  0  0  0  0  0  0  0  0  0
    0.5969    8.7866    0.0000 N   0  0  0  0  0  0  0  0  0  0  0  0
    1.9877    8.2247    0.0000 N   0  0  0  0  0  0  0  0  0  0  0  0
    1.8831    6.7284    0.0000 N   0  0  0  0  0  0  0  0  0  0  0  0
    3.0321    5.7642    0.0000 C   0  0  0  0  0  0  0  0  0  0  0  0
    2.7716    4.2870    0.0000 C   0  0  0  0  0  0  0  0  0  0  0  0
    3.9207    3.3228    0.0000 C   0  0  0  0  0  0  0  0  0  0  0  0
    5.3303    3.8358    0.0000 C   0  0  0  0  0  0  0  0  0  0  0  0
    5.5907    5.3130    0.0000 C   0  0  0  0  0  0  0  0  0  0  0  0
    4.4417    6.2772    0.0000 C   0  0  0  0  0  0  0  0  0  0  0  0
    4.7021    7.7544    0.0000 C   0  0  0  0  0  0  0  0  0  0  0  0
    3.5531    8.7186    0.0000 C   0  0  0  0  0  0  0  0  0  0  0  0
    3.8135   10.1958    0.0000 C   0  0  0  0  0  0  0  0  0  0  0  0
    5.2231   10.7088    0.0000 C   0  0  0  0  0  0  0  0  0  0  0  0
    5.4835   12.1860    0.0000 C   0  0  0  0  0  0  0  0  0  0  0  0
    6.8931   12.6991    0.0000 O   0  0  0  0  0  0  0  0  0  0  0  0
    4.3345   13.1502    0.0000 N   0  0  0  0  0  0  0  0  0  0  0  0
    4.5950   14.6274    0.0000 O   0  0  0  0  0  0  0  0  0  0  0  0
    6.3721    9.7447    0.0000 N   0  0  0  0  0  0  0  0  0  0  0  0
    6.1117    8.2674    0.0000 C   0  0  0  0  0  0  0  0  0  0  0  0
    7.2607    7.3033    0.0000 O   0  0  0  0  0  0  0  0  0  0  0  0
    0.9804    3.9710    0.0000 C   0  0  0  0  0  0  0  0  0  0  0  0
    1.9353    4.2090    0.0000 O   0  0  0  0  0  0  0  0  0  0  0  0
    1.1892    2.4856    0.0000 N   0  0  0  0  0  0  0  0  0  0  0  0
    0.3943    1.2135    0.0000 C   0  0  0  0  0  0  0  0  0  0  0  0
    1.2760    0.0000    0.0000 N   0  0  0  0  0  0  0  0  0  0  0  0
    0.3943   -1.2135    0.0000 N   0  0  0  0  0  0  0  0  0  0  0  0
   -1.0323   -0.7500    0.0000 N   0  0  0  0  0  0  0  0  0  0  0  0
   -1.0323    0.7500    0.0000 N   0  0  0  0  0  0  0  0  0  0  0  0
   -2.4231    1.3119    0.0000 C   0  0  0  0  0  0  0  0  0  0  0  0
   -3.4268    0.1972    0.0000 O   0  0  0  0  0  0  0  0  0  0  0  0
   -5.7691    6.2724    0.0000 C   0  0  0  0  0  0  0  0  0  0  0  0
   -6.5652    6.2307    0.0000 O   0  0  0  0  0  0  0  0  0  0  0  0
   -7.7783    7.1449    0.0000 C   0  0  0  0  0  0  0  0  0  0  0  0
   -7.2554    6.5432    0.0000 O   0  0  0  0  0  0  0  0  0  0  0  0
   -9.0504    6.3500    0.0000 N   0  0  0  0  0  0  0  0  0  0  0  0
  1  2  1  0
  2  3  2  0
  3  4  1  0
  4  5  2  0
  5  6  1  0
  6  7  2  0
  7  8  1  0
  8  9  2  0
  9 10  1  0
 10 11  1  0
 11 12  2  0
 12 13  1  0
 13 14  2  0
 14 15  1  0
 15 16  2  0
 16 17  1  0
 17 18  2  0
 18 19  1  0
 19 20  2  0
 20 21  1  0
 21 22  2  0
 22 23  1  0
 23 24  2  0
 24 25  1  0
 25 26  2  0
 26 27  1  0
 27 28  2  0
 28 29  1  0
 29 30  1  0
 30 31  2  0
 31 32  1  0
 32 33  2  0
 33 34  1  0
 34 35  2  0
 35 36  1  0
 36 37  2  0
 37 38  1  0
 38 39  2  0
 39 40  1  0
 40 41  2  0
 40 42  1  0
 42 43  1  0
 39 44  1  0
 44 45  1  0
 45 46  2  0
 24 47  1  0
 47 48  2  0
 47 49  1  0
 49 50  1  0
 50 51  2  0
 51 52  1  0
 52 53  2  0
 53 54  1  0
 54 55  1  0
 55 56  2  0
 14 57  1  0
 57 58  2  0
  5 59  1  0
 59 60  2  0
 59 61  1  0
 61  2  1  0
 10  6  1  0
 57 11  1  0
 20 15  1  0
 55 21  1  0
 29 25  1  0
 35 30  1  0
 45 36  1  0
 54 50  1  0
M  END
>  <Title>  (5) 
idABYCgen9

$$$$

     RDKit          2D

 54 62  0  0  0  0  0  0  0  0999 V2000
    3.2286   -0.0000    0.0000 C   0  0  0  0  0  0  0  0  0  0  0  0
    1.7286    0.0000    0.0000 C   0  0  0  0  0  0  0  0  0  0  0  0
    1.0777    1.3515    0.0000 C   0  0  0  0  0  0  0  0  0  0  0  0
   -0.3846    1.6852    0.0000 C   0  0  0  0  0  0  0  0  0  0  0  0
   -1.5574    0.7500    0.0000 C   0  0  0  0  0  0  0  0  0  0  0  0
   -2.9088    1.4008    0.0000 N   0  0  0  0  0  0  0  0  0  0  0  0
   -4.2297    0.6900    0.0000 N   0  0  0  0  0  0  0  0  0  0  0  0
   -5.3139    1.7266    0.0000 N   0  0  0  0  0  0  0  0  0  0  0  0
   -4.6631    3.0781    0.0000 N   0  0  0  0  0  0  0  0  0  0  0  0
   -3.1767    2.8767    0.0000 C   0  0  0  0  0  0  0  0  0  0  0  0
   -2.1401    3.9609    0.0000 C   0  0  0  0  0  0  0  0  0  0  0  0
   -0.6829    3.6053    0.0000 C   0  0  0  0  0  0  0  0  0  0  0  0
    0.3537    4.6895    0.0000 C   0  0  0  0  0  0  0  0  0  0  0  0
   -0.0669    6.1293    0.0000 C   0  0  0  0  0  0  0  0  0  0  0  0
    0.9697    7.2135    0.0000 C   0  0  0  0  0  0  0  0  0  0  0  0
    0.7019    8.6894    0.0000 N   0  0  0  0  0  0  0  0  0  0  0  0
    2.0228    9.4002    0.0000 N   0  0  0  0  0  0  0  0  0  0  0  0
    3.1069    8.3636    0.0000 N   0  0  0  0  0  0  0  0  0  0  0  0
    2.4561    7.0121    0.0000 N   0  0  0  0  0  0  0  0  0  0  0  0
    3.1669    5.6912    0.0000 C   0  0  0  0  0  0  0  0  0  0  0  0
    2.3784    4.4152    0.0000 C   0  0  0  0  0  0  0  0  0  0  0  0
    3.0892    3.0943    0.0000 C   0  0  0  0  0  0  0  0  0  0  0  0
    4.5885    3.0495    0.0000 C   0  0  0  0  0  0  0  0  0  0  0  0
    5.3771    4.3255    0.0000 C   0  0  0  0  0  0  0  0  0  0  0  0
    4.6663    5.6464    0.0000 C   0  0  0  0  0  0  0  0  0  0  0  0
   -1.5241    6.4849    0.0000 C   0  0  0  0  0  0  0  0  0  0  0  0
   -2.5607    5.4007    0.0000 C   0  0  0  0  0  0  0  0  0  0  0  0
   -4.0180    5.7563    0.0000 C   0  0  0  0  0  0  0  0  0  0  0  0
   -5.1622    4.7864    0.0000 C   0  0  0  0  0  0  0  0  0  0  0  0
   -6.4382    5.5750    0.0000 C   0  0  0  0  0  0  0  0  0  0  0  0
   -6.0826    7.0322    0.0000 C   0  0  0  0  0  0  0  0  0  0  0  0
   -7.0525    8.1765    0.0000 C   0  0  0  0  0  0  0  0  0  0  0  0
   -8.5483    8.0644    0.0000 N   0  0  0  0  0  0  0  0  0  0  0  0
   -9.1171    9.4523    0.0000 N   0  0  0  0  0  0  0  0  0  0  0  0
   -7.9729   10.4222    0.0000 N   0  0  0  0  0  0  0  0  0  0  0  0
   -6.6969    9.6337    0.0000 N   0  0  0  0  0  0  0  0  0  0  0  0
   -5.3089   10.2025    0.0000 C   0  0  0  0  0  0  0  0  0  0  0  0
   -4.1223    9.2849    0.0000 C   0  0  0  0  0  0  0  0  0  0  0  0
   -2.7344    9.8538    0.0000 C   0  0  0  0  0  0  0  0  0  0  0  0
   -2.5330   11.3402    0.0000 N   0  0  0  0  0  0  0  0  0  0  0  0
   -3.7196   12.2578    0.0000 N   0  0  0  0  0  0  0  0  0  0  0  0
   -5.1076   11.6889    0.0000 C   0  0  0  0  0  0  0  0  0  0  0  0
   -6.2942   12.6065    0.0000 C   0  0  0  0  0  0  0  0  0  0  0  0
   -6.0928   14.0930    0.0000 C   0  0  0  0  0  0  0  0  0  0  0  0
   -7.2794   15.0105    0.0000 C   0  0  0  0  0  0  0  0  0  0  0  0
   -8.6674   14.4417    0.0000 C   0  0  0  0  0  0  0  0  0  0  0  0
   -8.8687   12.9553    0.0000 C   0  0  0  0  0  0  0  0  0  0  0  0
   -7.6821   12.0377    0.0000 C   0  0  0  0  0  0  0  0  0  0  0  0
   -4.5868    7.1443    0.0000 C   0  0  0  0  0  0  0  0  0  0  0  0
   -3.7983    8.4203    0.0000 O   0  0  0  0  0  0  0  0  0  0  0  0
   -1.5574   -0.7500    0.0000 N   0  0  0  0  0  0  0  0  0  0  0  0
   -0.3846   -1.6852    0.0000 C   0  0  0  0  0  0  0  0  0  0  0  0
   -0.7184   -3.1476    0.0000 O   0  0  0  0  0  0  0  0  0  0  0  0
    1.0777   -1.3515    0.0000 N   0  0  0  0  0  0  0  0  0  0  0  0
  1  2  1  0
  2  3  2  0
  3  4  1  0
  4  5  2  0
  5  6  1  0
  6  7  1  0
  7  8  2  0
  8  9  1  0
  9 10  2  0
 10 11  1  0
 11 12  2  0
 12 13  1  0
 13 14  2  0
 14 15  1  0
 15 16  2  0
 16 17  1  0
 17 18  2  0
 18 19  1  0
 19 20  1  0
 20 21  2  0
 21 22  1  0
 22 23  2  0
 23 24  1  0
 24 25  2  0
 14 26  1  0
 26 27  2  0
 27 28  1  0
 28 29  2  0
 29 30  1  0
 30 31  2  0
 31 32  1  0
 32 33  2  0
 33 34  1  0
 34 35  2  0
 35 36  1  0
 36 37  1  0
 37 38  2  0
 38 39  1  0
 39 40  2  0
 40 41  1  0
 41 42  2  0
 42 43  1  0
 43 44  2  0
 44 45  1  0
 45 46  2  0
 46 47  1  0
 47 48  2  0
 31 49  1  0
 49 50  2  0
  5 51  1  0
 51 52  1  0
 52 53  2  0
 52 54  1  0
 54  2  1  0
 10  6  1  0
 27 11  1  0
 49 28  1  0
 19 15  1  0
 25 20  1  0
 36 32  1  0
 42 37  1  0
 48 43  1  0
M  END
>  <Title>  (6) 
idAAQOgen10

$$$$

     RDKit          2D

 50 57  0  0  0  0  0  0  0  0999 V2000
    2.1412    1.9606    0.0000 C   0  0  0  0  0  0  0  0  0  0  0  0
    2.2458    0.4643    0.0000 C   0  0  0  0  0  0  0  0  0  0  0  0
    1.0023   -0.3745    0.0000 C   0  0  0  0  0  0  0  0  0  0  0  0
    1.1069   -1.8709    0.0000 C   0  0  0  0  0  0  0  0  0  0  0  0
    2.4551   -2.5284    0.0000 C   0  0  0  0  0  0  0  0  0  0  0  0
    2.5597   -4.0248    0.0000 C   0  0  0  0  0  0  0  0  0  0  0  0
    3.9079   -4.6823    0.0000 O   0  0  0  0  0  0  0  0  0  0  0  0
    1.3162   -4.8636    0.0000 N   0  0  0  0  0  0  0  0  0  0  0  0
    1.4208   -6.3599    0.0000 C   0  0  0  0  0  0  0  0  0  0  0  0
    2.6929   -7.1548    0.0000 N   0  0  0  0  0  0  0  0  0  0  0  0
    2.3300   -8.6102    0.0000 N   0  0  0  0  0  0  0  0  0  0  0  0
    0.8336   -8.7149    0.0000 N   0  0  0  0  0  0  0  0  0  0  0  0
    0.2717   -7.3241    0.0000 N   0  0  0  0  0  0  0  0  0  0  0  0
   -1.1837   -6.9612    0.0000 C   0  0  0  0  0  0  0  0  0  0  0  0
   -1.5972   -5.5193    0.0000 C   0  0  0  0  0  0  0  0  0  0  0  0
   -3.0526   -5.1564    0.0000 C   0  0  0  0  0  0  0  0  0  0  0  0
   -4.0946   -6.2354    0.0000 C   0  0  0  0  0  0  0  0  0  0  0  0
   -5.5500   -5.8725    0.0000 C   0  0  0  0  0  0  0  0  0  0  0  0
   -6.6991   -6.8367    0.0000 N   0  0  0  0  0  0  0  0  0  0  0  0
   -7.9712   -6.0419    0.0000 N   0  0  0  0  0  0  0  0  0  0  0  0
   -7.6083   -4.5864    0.0000 N   0  0  0  0  0  0  0  0  0  0  0  0
   -6.1120   -4.4818    0.0000 N   0  0  0  0  0  0  0  0  0  0  0  0
   -5.3171   -3.2097    0.0000 C   0  0  0  0  0  0  0  0  0  0  0  0
   -6.2406   -2.0277    0.0000 C   0  0  0  0  0  0  0  0  0  0  0  0
   -6.1882   -0.5286    0.0000 C   0  0  0  0  0  0  0  0  0  0  0  0
   -5.1845    0.5861    0.0000 C   0  0  0  0  0  0  0  0  0  0  0  0
   -6.5089    1.2903    0.0000 C   0  0  0  0  0  0  0  0  0  0  0  0
   -7.1665    2.6385    0.0000 C   0  0  0  0  0  0  0  0  0  0  0  0
   -6.9060    4.1157    0.0000 C   0  0  0  0  0  0  0  0  0  0  0  0
   -5.8270    5.1577    0.0000 C   0  0  0  0  0  0  0  0  0  0  0  0
   -4.3416    5.3665    0.0000 C   0  0  0  0  0  0  0  0  0  0  0  0
   -3.0172    4.6623    0.0000 C   0  0  0  0  0  0  0  0  0  0  0  0
   -2.3596    3.3141    0.0000 C   0  0  0  0  0  0  0  0  0  0  0  0
   -2.6201    1.8369    0.0000 C   0  0  0  0  0  0  0  0  0  0  0  0
   -3.6991    0.7949    0.0000 C   0  0  0  0  0  0  0  0  0  0  0  0
   -2.4271    0.0000    0.0000 N   0  0  0  0  0  0  0  0  0  0  0  0
   -1.9635   -1.4266    0.0000 N   0  0  0  0  0  0  0  0  0  0  0  0
   -2.5254   -2.8174    0.0000 N   0  0  0  0  0  0  0  0  0  0  0  0
   -3.8499   -3.5216    0.0000 N   0  0  0  0  0  0  0  0  0  0  0  0
   -3.6811   -7.6773    0.0000 C   0  0  0  0  0  0  0  0  0  0  0  0
   -2.2257   -8.0402    0.0000 C   0  0  0  0  0  0  0  0  0  0  0  0
    3.6986   -1.6896    0.0000 C   0  0  0  0  0  0  0  0  0  0  0  0
    3.5940   -0.1933    0.0000 C   0  0  0  0  0  0  0  0  0  0  0  0
    4.8376    0.6455    0.0000 N   0  0  0  0  0  0  0  0  0  0  0  0
    6.2471    0.1325    0.0000 N   0  0  0  0  0  0  0  0  0  0  0  0
    7.1706    1.3145    0.0000 C   0  0  0  0  0  0  0  0  0  0  0  0
    8.6697    1.2621    0.0000 C   0  0  0  0  0  0  0  0  0  0  0  0
    6.3318    2.5581    0.0000 C   0  0  0  0  0  0  0  0  0  0  0  0
    6.8448    3.9676    0.0000 O   0  0  0  0  0  0  0  0  0  0  0  0
    4.8899    2.1446    0.0000 N   0  0  0  0  0  0  0  0  0  0  0  0
  1  2  1  0
  2  3  2  0
  3  4  1  0
  4  5  2  0
  5  6  1  0
  6  7  2  0
  6  8  1  0
  8  9  1  0
  9 10  2  0
 10 11  1  0
 11 12  2  0
 12 13  1  0
 13 14  1  0
 14 15  2  0
 15 16  1  0
 16 17  2  0
 17 18  1  0
 18 19  2  0
 19 20  1  0
 20 21  2  0
 21 22  1  0
 22 23  1  0
 23 24  2  0
 24 25  1  0
 25 26  2  0
 26 27  1  0
 27 28  2  0
 28 29  1  0
 29 30  2  0
 30 31  1  0
 31 32  2  0
 32 33  1  0
 33 34  2  0
 34 35  1  0
 35 36  2  0
 36 37  1  0
 37 38  2  0
 38 39  1  0
 17 40  1  0
 40 41  2  0
  5 42  1  0
 42 43  2  0
 43 44  1  0
 44 45  1  0
 45 46  2  0
 46 47  1  0
 46 48  1  0
 48 49  2  0
 48 50  1  0
 43  2  1  0
 50 44  1  0
 13  9  1  0
 41 14  1  0
 22 18  1  0
 39 23  1  0
 35 26  1  0
 39 29  1  0
M  END
>  <Title>  (7) 
idAAFCgen7

$$$$

     RDKit          2D

 42 48  0  0  0  0  0  0  0  0999 V2000
    3.0000    0.0000    0.0000 C   0  0  0  0  0  0  0  0  0  0  0  0
    1.5000    0.0000    0.0000 C   0  0  0  0  0  0  0  0  0  0  0  0
    0.7500   -1.2990    0.0000 C   0  0  0  0  0  0  0  0  0  0  0  0
   -0.7500   -1.2990    0.0000 C   0  0  0  0  0  0  0  0  0  0  0  0
   -1.5000    0.0000    0.0000 C   0  0  0  0  0  0  0  0  0  0  0  0
   -3.0000    0.0000    0.0000 C   0  0  0  0  0  0  0  0  0  0  0  0
   -3.8817   -1.2135    0.0000 N   0  0  0  0  0  0  0  0  0  0  0  0
   -5.3083   -0.7500    0.0000 N   0  0  0  0  0  0  0  0  0  0  0  0
   -5.3083    0.7500    0.0000 N   0  0  0  0  0  0  0  0  0  0  0  0
   -3.8817    1.2135    0.0000 N   0  0  0  0  0  0  0  0  0  0  0  0
   -3.4182    2.6401    0.0000 C   0  0  0  0  0  0  0  0  0  0  0  0
   -1.9509    2.9520    0.0000 C   0  0  0  0  0  0  0  0  0  0  0  0
   -1.4874    4.3786    0.0000 C   0  0  0  0  0  0  0  0  0  0  0  0
   -2.4911    5.4933    0.0000 C   0  0  0  0  0  0  0  0  0  0  0  0
   -3.9583    5.1814    0.0000 C   0  0  0  0  0  0  0  0  0  0  0  0
   -4.4218    3.7548    0.0000 C   0  0  0  0  0  0  0  0  0  0  0  0
   -5.8891    3.4430    0.0000 C   0  0  0  0  0  0  0  0  0  0  0  0
   -6.4992    2.0726    0.0000 C   0  0  0  0  0  0  0  0  0  0  0  0
   -7.9910    2.2294    0.0000 C   0  0  0  0  0  0  0  0  0  0  0  0
   -8.3028    3.6967    0.0000 C   0  0  0  0  0  0  0  0  0  0  0  0
   -9.6731    4.3068    0.0000 C   0  0  0  0  0  0  0  0  0  0  0  0
  -10.9722    3.5568    0.0000 N   0  0  0  0  0  0  0  0  0  0  0  0
  -12.0869    4.5605    0.0000 N   0  0  0  0  0  0  0  0  0  0  0  0
  -11.4768    5.9308    0.0000 N   0  0  0  0  0  0  0  0  0  0  0  0
   -9.9850    5.7740    0.0000 N   0  0  0  0  0  0  0  0  0  0  0  0
   -8.9813    6.8887    0.0000 C   0  0  0  0  0  0  0  0  0  0  0  0
   -7.5141    6.5768    0.0000 C   0  0  0  0  0  0  0  0  0  0  0  0
   -6.5104    7.6915    0.0000 C   0  0  0  0  0  0  0  0  0  0  0  0
   -6.9739    9.1181    0.0000 C   0  0  0  0  0  0  0  0  0  0  0  0
   -8.4411    9.4300    0.0000 N   0  0  0  0  0  0  0  0  0  0  0  0
   -9.4448    8.3153    0.0000 C   0  0  0  0  0  0  0  0  0  0  0  0
  -10.9121    8.6272    0.0000 C   0  0  0  0  0  0  0  0  0  0  0  0
  -11.3756   10.0537    0.0000 C   0  0  0  0  0  0  0  0  0  0  0  0
  -12.8428   10.3656    0.0000 C   0  0  0  0  0  0  0  0  0  0  0  0
  -13.8465    9.2509    0.0000 C   0  0  0  0  0  0  0  0  0  0  0  0
  -13.3830    7.8243    0.0000 C   0  0  0  0  0  0  0  0  0  0  0  0
  -11.9158    7.5124    0.0000 C   0  0  0  0  0  0  0  0  0  0  0  0
   -7.0038    4.4467    0.0000 C   0  0  0  0  0  0  0  0  0  0  0  0
   -6.8470    5.9384    0.0000 O   0  0  0  0  0  0  0  0  0  0  0  0
   -0.7500    1.2990    0.0000 N   0  0  0  0  0  0  0  0  0  0  0  0
    0.7500    1.2990    0.0000 C   0  0  0  0  0  0  0  0  0  0  0  0
    1.5000    2.5981    0.0000 O   0  0  0  0  0  0  0  0  0  0  0  0
  1  2  1  0
  2  3  2  0
  3  4  1  0
  4  5  2  0
  5  6  1  0
  6  7  2  0
  7  8  1  0
  8  9  2  0
  9 10  1  0
 10 11  1  0
 11 12  2  0
 12 13  1  0
 13 14  2  0
 14 15  1  0
 15 16  2  0
 16 17  1  0
 17 18  2  0
 18 19  1  0
 19 20  2  0
 20 21  1  0
 21 22  2  0
 22 23  1  0
 23 24  2  0
 24 25  1  0
 25 26  1  0
 26 27  2  0
 27 28  1  0
 28 29  2  0
 29 30  1  0
 30 31  2  0
 31 32  1  0
 32 33  2  0
 33 34  1  0
 34 35  2  0
 35 36  1  0
 36 37  2  0
 20 38  1  0
 38 39  2  0
  5 40  1  0
 40 41  1  0
 41 42  2  0
 41  2  1  0
 10  6  1  0
 16 11  1  0
 38 17  1  0
 25 21  1  0
 31 26  1  0
 37 32  1  0
M  END
>  <Title>  (8) 
idABCUgen10

$$$$

     RDKit          2D

 48 54  0  0  0  0  0  0  0  0999 V2000
   -2.0967  -15.5661    0.0000 C   0  0  0  0  0  0  0  0  0  0  0  0
   -2.5211  -14.1274    0.0000 C   0  0  0  0  0  0  0  0  0  0  0  0
   -1.4090  -13.1208    0.0000 C   0  0  0  0  0  0  0  0  0  0  0  0
   -1.5026  -11.6237    0.0000 C   0  0  0  0  0  0  0  0  0  0  0  0
   -2.7315  -10.7635    0.0000 C   0  0  0  0  0  0  0  0  0  0  0  0
   -2.4896   -9.2831    0.0000 C   0  0  0  0  0  0  0  0  0  0  0  0
   -3.5451   -8.2173    0.0000 N   0  0  0  0  0  0  0  0  0  0  0  0
   -2.8576   -6.8841    0.0000 N   0  0  0  0  0  0  0  0  0  0  0  0
   -1.3772   -7.1260    0.0000 N   0  0  0  0  0  0  0  0  0  0  0  0
   -1.1498   -8.6087    0.0000 N   0  0  0  0  0  0  0  0  0  0  0  0
    0.1834   -9.2962    0.0000 C   0  0  0  0  0  0  0  0  0  0  0  0
    0.2546  -10.7945    0.0000 C   0  0  0  0  0  0  0  0  0  0  0  0
    1.5878  -11.4820    0.0000 C   0  0  0  0  0  0  0  0  0  0  0  0
    2.8497  -10.6712    0.0000 N   0  0  0  0  0  0  0  0  0  0  0  0
    2.7785   -9.1728    0.0000 N   0  0  0  0  0  0  0  0  0  0  0  0
    1.4454   -8.4853    0.0000 C   0  0  0  0  0  0  0  0  0  0  0  0
    1.3742   -6.9870    0.0000 C   0  0  0  0  0  0  0  0  0  0  0  0
   -0.0067   -6.4011    0.0000 C   0  0  0  0  0  0  0  0  0  0  0  0
   -0.4095   -4.9562    0.0000 C   0  0  0  0  0  0  0  0  0  0  0  0
    0.4690   -3.7404    0.0000 C   0  0  0  0  0  0  0  0  0  0  0  0
   -1.0629   -1.1222    0.0000 C   0  0  0  0  0  0  0  0  0  0  0  0
   -2.1182   -0.4540    0.0000 C   0  0  0  0  0  0  0  0  0  0  0  0
   -4.4360   -0.6005    0.0000 C   0  0  0  0  0  0  0  0  0  0  0  0
   -5.5981    0.0000    0.0000 C   0  0  0  0  0  0  0  0  0  0  0  0
   -4.2990    0.7500    0.0000 C   0  0  0  0  0  0  0  0  0  0  0  0
   -4.6873    2.1989    0.0000 O   0  0  0  0  0  0  0  0  0  0  0  0
   -2.7990    0.7500    0.0000 N   0  0  0  0  0  0  0  0  0  0  0  0
   -1.5000    0.0000    0.0000 C   0  0  0  0  0  0  0  0  0  0  0  0
   -0.7500   -1.2990    0.0000 C   0  0  0  0  0  0  0  0  0  0  0  0
    0.7500   -1.2990    0.0000 N   0  0  0  0  0  0  0  0  0  0  0  0
    1.5000    0.0000    0.0000 N   0  0  0  0  0  0  0  0  0  0  0  0
    0.7500    1.2990    0.0000 N   0  0  0  0  0  0  0  0  0  0  0  0
   -0.7500    1.2990    0.0000 N   0  0  0  0  0  0  0  0  0  0  0  0
   -0.7500   -2.7990    0.0000 C   0  0  0  0  0  0  0  0  0  0  0  0
   -1.5000   -4.0981    0.0000 C   0  0  0  0  0  0  0  0  0  0  0  0
   -2.7990   -4.8481    0.0000 C   0  0  0  0  0  0  0  0  0  0  0  0
   -4.2990   -4.8481    0.0000 C   0  0  0  0  0  0  0  0  0  0  0  0
   -5.5981   -4.0981    0.0000 C   0  0  0  0  0  0  0  0  0  0  0  0
   -6.3481   -2.7990    0.0000 C   0  0  0  0  0  0  0  0  0  0  0  0
   -6.3481   -1.2990    0.0000 C   0  0  0  0  0  0  0  0  0  0  0  0
    1.9673   -3.6692    0.0000 C   0  0  0  0  0  0  0  0  0  0  0  0
    2.9572   -4.7962    0.0000 C   0  0  0  0  0  0  0  0  0  0  0  0
    2.6932   -6.2728    0.0000 C   0  0  0  0  0  0  0  0  0  0  0  0
    3.9090   -7.1513    0.0000 O   0  0  0  0  0  0  0  0  0  0  0  0
   -4.1702  -11.1879    0.0000 N   0  0  0  0  0  0  0  0  0  0  0  0
   -4.7354  -12.5773    0.0000 C   0  0  0  0  0  0  0  0  0  0  0  0
   -6.2325  -12.6709    0.0000 O   0  0  0  0  0  0  0  0  0  0  0  0
   -4.0015  -13.8855    0.0000 C   0  0  0  0  0  0  0  0  0  0  0  0
  1  2  1  0
  2  3  2  0
  3  4  1  0
  4  5  2  0
  5  6  1  0
  6  7  2  0
  7  8  1  0
  8  9  2  0
  9 10  1  0
 10 11  1  0
 11 12  2  0
 12 13  1  0
 13 14  2  0
 14 15  1  0
 15 16  2  0
 16 17  1  0
 17 18  2  0
 18 19  1  0
 19 20  2  0
 20 21  1  0
 21 22  2  0
 22 23  1  0
 23 24  2  0
 24 25  1  0
 25 26  2  0
 25 27  1  0
 27 28  1  0
 28 29  1  0
 29 30  1  0
 30 31  1  0
 31 32  2  0
 32 33  1  0
 29 34  2  0
 34 35  1  0
 35 36  2  0
 36 37  1  0
 37 38  2  0
 38 39  1  0
 39 40  2  0
 20 41  1  0
 41 42  1  0
 42 43  1  0
 43 44  2  0
  5 45  1  0
 45 46  1  0
 46 47  2  0
 46 48  1  0
 48  2  1  0
 10  6  1  0
 16 11  1  0
 43 17  1  0
 30 21  1  0
 40 24  1  0
 33 28  2  0
M  END
>  <Title>  (9) 
idAADDgen9

$$$$

     RDKit          2D

 54 61  0  0  0  0  0  0  0  0999 V2000
   -2.5242   -4.8694    0.0000 C   0  0  0  0  0  0  0  0  0  0  0  0
   -1.3515   -3.9342    0.0000 C   0  0  0  0  0  0  0  0  0  0  0  0
   -0.0000   -4.5850    0.0000 C   0  0  0  0  0  0  0  0  0  0  0  0
    1.3515   -3.9342    0.0000 C   0  0  0  0  0  0  0  0  0  0  0  0
    1.6852   -2.4718    0.0000 C   0  0  0  0  0  0  0  0  0  0  0  0
    3.1476   -2.1380    0.0000 C   0  0  0  0  0  0  0  0  0  0  0  0
    3.7372   -0.7587    0.0000 N   0  0  0  0  0  0  0  0  0  0  0  0
    5.2311   -0.8932    0.0000 N   0  0  0  0  0  0  0  0  0  0  0  0
    5.5649   -2.3556    0.0000 N   0  0  0  0  0  0  0  0  0  0  0  0
    4.2772   -3.1249    0.0000 N   0  0  0  0  0  0  0  0  0  0  0  0
    4.1428   -4.6189    0.0000 C   0  0  0  0  0  0  0  0  0  0  0  0
    5.2724   -5.6058    0.0000 C   0  0  0  0  0  0  0  0  0  0  0  0
    4.6828   -6.9851    0.0000 C   0  0  0  0  0  0  0  0  0  0  0  0
    3.1889   -6.8506    0.0000 C   0  0  0  0  0  0  0  0  0  0  0  0
    2.2020   -7.9802    0.0000 C   0  0  0  0  0  0  0  0  0  0  0  0
    3.0159   -9.2402    0.0000 O   0  0  0  0  0  0  0  0  0  0  0  0
    0.7303   -7.6903    0.0000 N   0  0  0  0  0  0  0  0  0  0  0  0
   -0.2567   -8.8199    0.0000 C   0  0  0  0  0  0  0  0  0  0  0  0
   -1.7506   -8.6855    0.0000 N   0  0  0  0  0  0  0  0  0  0  0  0
   -2.3402  -10.0648    0.0000 N   0  0  0  0  0  0  0  0  0  0  0  0
   -1.2105  -11.0517    0.0000 N   0  0  0  0  0  0  0  0  0  0  0  0
    0.0771  -10.2823    0.0000 N   0  0  0  0  0  0  0  0  0  0  0  0
    1.4564  -10.8719    0.0000 C   0  0  0  0  0  0  0  0  0  0  0  0
    2.6566   -9.9721    0.0000 C   0  0  0  0  0  0  0  0  0  0  0  0
    4.0359  -10.5617    0.0000 C   0  0  0  0  0  0  0  0  0  0  0  0
    4.2150  -12.0509    0.0000 N   0  0  0  0  0  0  0  0  0  0  0  0
    3.0148  -12.9507    0.0000 N   0  0  0  0  0  0  0  0  0  0  0  0
    1.6355  -12.3611    0.0000 C   0  0  0  0  0  0  0  0  0  0  0  0
    0.4353  -13.2609    0.0000 C   0  0  0  0  0  0  0  0  0  0  0  0
    0.6144  -14.7501    0.0000 C   0  0  0  0  0  0  0  0  0  0  0  0
   -0.5858  -15.6499    0.0000 C   0  0  0  0  0  0  0  0  0  0  0  0
   -1.9651  -15.0603    0.0000 C   0  0  0  0  0  0  0  0  0  0  0  0
   -2.1442  -13.5711    0.0000 N   0  0  0  0  0  0  0  0  0  0  0  0
   -0.9440  -12.6713    0.0000 C   0  0  0  0  0  0  0  0  0  0  0  0
   -1.2278  -11.9264    0.0000 O   0  0  0  0  0  0  0  0  0  0  0  0
    2.8551   -5.3882    0.0000 C   0  0  0  0  0  0  0  0  0  0  0  0
    1.4758   -4.7987    0.0000 O   0  0  0  0  0  0  0  0  0  0  0  0
    0.7500   -1.2990    0.0000 C   0  0  0  0  0  0  0  0  0  0  0  0
    1.5000    0.0000    0.0000 C   0  0  0  0  0  0  0  0  0  0  0  0
    0.7500    1.2990    0.0000 C   0  0  0  0  0  0  0  0  0  0  0  0
   -0.7500    1.2990    0.0000 C   0  0  0  0  0  0  0  0  0  0  0  0
   -1.5000    2.5981    0.0000 C   0  0  0  0  0  0  0  0  0  0  0  0
   -0.7500    3.8971    0.0000 C   0  0  0  0  0  0  0  0  0  0  0  0
   -1.5000    5.1962    0.0000 C   0  0  0  0  0  0  0  0  0  0  0  0
   -3.0000    5.1962    0.0000 C   0  0  0  0  0  0  0  0  0  0  0  0
   -3.7500    6.4952    0.0000 C   0  0  0  0  0  0  0  0  0  0  0  0
   -5.2500    6.4952    0.0000 O   0  0  0  0  0  0  0  0  0  0  0  0
   -3.0000    7.7942    0.0000 N   0  0  0  0  0  0  0  0  0  0  0  0
   -3.7500    9.0933    0.0000 O   0  0  0  0  0  0  0  0  0  0  0  0
   -3.7500    3.8971    0.0000 C   0  0  0  0  0  0  0  0  0  0  0  0
   -3.0000    2.5981    0.0000 C   0  0  0  0  0  0  0  0  0  0  0  0
   -1.5000    0.0000    0.0000 C   0  0  0  0  0  0  0  0  0  0  0  0
   -0.7500   -1.2990    0.0000 C   0  0  0  0  0  0  0  0  0  0  0  0
   -1.6852   -2.4718    0.0000 C   0  0  0  0  0  0  0  0  0  0  0  0
  1  2  1  0
  2  3  2  0
  3  4  1  0
  4  5  2  0
  5  6  1  0
  6  7  2  0
  7  8  1  0
  8  9  2  0
  9 10  1  0
 10 11  1  0
 11 12  2  0
 12 13  1  0
 13 14  2  0
 14 15  1  0
 15 16  2  0
 15 17  1  0
 17 18  1  0
 18 19  2  0
 19 20  1  0
 20 21  2  0
 21 22  1  0
 22 23  1  0
 23 24  2  0
 24 25  1  0
 25 26  2  0
 26 27  1  0
 27 28  2  0
 28 29  1  0
 29 30  2  0
 30 31  1  0
 31 32  2  0
 32 33  1  0
 33 34  1  0
 34 35  2  0
 14 36  1  0
 36 37  2  0
  5 38  1  0
 38 39  2  0
 39 40  1  0
 40 41  2  0
 41 42  1  0
 42 43  2  0
 43 44  1  0
 44 45  2  0
 45 46  1  0
 46 47  2  0
 46 48  1  0
 48 49  1  0
 45 50  1  0
 50 51  1  0
 41 52  1  0
 52 53  2  0
 53 54  1  0
 54  2  1  0
 10  6  1  0
 36 11  1  0
 53 38  1  0
 22 18  1  0
 28 23  1  0
 34 29  1  0
 51 42  1  0
M  END
>  <Title>  (10) 
idAAKAgen9

$$$$

     RDKit          2D

 50 55  0  0  0  0  0  0  0  0999 V2000
   -7.7829  -18.3498    0.0000 C   0  0  0  0  0  0  0  0  0  0  0  0
   -6.8594  -17.1678    0.0000 C   0  0  0  0  0  0  0  0  0  0  0  0
   -5.9359  -15.9857    0.0000 C   0  0  0  0  0  0  0  0  0  0  0  0
   -5.6774  -18.0913    0.0000 C   0  0  0  0  0  0  0  0  0  0  0  0
   -8.0414  -16.2443    0.0000 C   0  0  0  0  0  0  0  0  0  0  0  0
   -9.4322  -16.8062    0.0000 O   0  0  0  0  0  0  0  0  0  0  0  0
   -7.8326  -14.7589    0.0000 N   0  0  0  0  0  0  0  0  0  0  0  0
   -9.0146  -13.8354    0.0000 C   0  0  0  0  0  0  0  0  0  0  0  0
  -10.4054  -14.3973    0.0000 C   0  0  0  0  0  0  0  0  0  0  0  0
  -11.5874  -13.4738    0.0000 C   0  0  0  0  0  0  0  0  0  0  0  0
  -11.3787  -11.9884    0.0000 C   0  0  0  0  0  0  0  0  0  0  0  0
  -12.5607  -11.0649    0.0000 C   0  0  0  0  0  0  0  0  0  0  0  0
  -13.9515  -11.6268    0.0000 O   0  0  0  0  0  0  0  0  0  0  0  0
  -12.3519   -9.5795    0.0000 N   0  0  0  0  0  0  0  0  0  0  0  0
  -13.5339   -8.6560    0.0000 C   0  0  0  0  0  0  0  0  0  0  0  0
  -14.9758   -9.0695    0.0000 N   0  0  0  0  0  0  0  0  0  0  0  0
  -15.8146   -7.8259    0.0000 N   0  0  0  0  0  0  0  0  0  0  0  0
  -14.8911   -6.6439    0.0000 N   0  0  0  0  0  0  0  0  0  0  0  0
  -13.4816   -7.1569    0.0000 N   0  0  0  0  0  0  0  0  0  0  0  0
  -12.2380   -6.3181    0.0000 C   0  0  0  0  0  0  0  0  0  0  0  0
  -12.1857   -4.8190    0.0000 C   0  0  0  0  0  0  0  0  0  0  0  0
  -10.7438   -4.4056    0.0000 C   0  0  0  0  0  0  0  0  0  0  0  0
   -9.9050   -5.6491    0.0000 C   0  0  0  0  0  0  0  0  0  0  0  0
   -8.4059   -5.7015    0.0000 C   0  0  0  0  0  0  0  0  0  0  0  0
   -7.7017   -7.0259    0.0000 O   0  0  0  0  0  0  0  0  0  0  0  0
   -7.6110   -4.4294    0.0000 N   0  0  0  0  0  0  0  0  0  0  0  0
   -6.1120   -4.4818    0.0000 C   0  0  0  0  0  0  0  0  0  0  0  0
   -5.4077   -5.8062    0.0000 O   0  0  0  0  0  0  0  0  0  0  0  0
   -5.3171   -3.2097    0.0000 C   0  0  0  0  0  0  0  0  0  0  0  0
   -3.8499   -3.5216    0.0000 C   0  0  0  0  0  0  0  0  0  0  0  0
   -2.5254   -2.8174    0.0000 C   0  0  0  0  0  0  0  0  0  0  0  0
   -1.9635   -1.4266    0.0000 C   0  0  0  0  0  0  0  0  0  0  0  0
   -0.7500   -2.3083    0.0000 C   0  0  0  0  0  0  0  0  0  0  0  0
    0.7500   -2.3083    0.0000 C   0  0  0  0  0  0  0  0  0  0  0  0
    1.9635   -1.4266    0.0000 C   0  0  0  0  0  0  0  0  0  0  0  0
    2.4271    0.0000    0.0000 C   0  0  0  0  0  0  0  0  0  0  0  0
    1.9635    1.4266    0.0000 C   0  0  0  0  0  0  0  0  0  0  0  0
    0.7500    2.3083    0.0000 C   0  0  0  0  0  0  0  0  0  0  0  0
   -0.7500    2.3083    0.0000 C   0  0  0  0  0  0  0  0  0  0  0  0
   -1.9635    1.4266    0.0000 C   0  0  0  0  0  0  0  0  0  0  0  0
   -2.4271    0.0000    0.0000 C   0  0  0  0  0  0  0  0  0  0  0  0
   -3.6991    0.7949    0.0000 N   0  0  0  0  0  0  0  0  0  0  0  0
   -5.1845    0.5861    0.0000 N   0  0  0  0  0  0  0  0  0  0  0  0
   -6.1882   -0.5286    0.0000 N   0  0  0  0  0  0  0  0  0  0  0  0
   -6.2406   -2.0277    0.0000 N   0  0  0  0  0  0  0  0  0  0  0  0
  -10.8285   -6.8312    0.0000 C   0  0  0  0  0  0  0  0  0  0  0  0
  -10.4150   -8.2731    0.0000 O   0  0  0  0  0  0  0  0  0  0  0  0
   -9.9879  -11.4265    0.0000 N   0  0  0  0  0  0  0  0  0  0  0  0
   -8.8059  -12.3500    0.0000 C   0  0  0  0  0  0  0  0  0  0  0  0
   -7.4151  -11.7881    0.0000 O   0  0  0  0  0  0  0  0  0  0  0  0
  1  2  1  0
  2  3  1  0
  2  4  1  0
  2  5  1  0
  5  6  2  0
  5  7  1  0
  7  8  1  0
  8  9  2  0
  9 10  1  0
 10 11  2  0
 11 12  1  0
 12 13  2  0
 12 14  1  0
 14 15  1  0
 15 16  2  0
 16 17  1  0
 17 18  2  0
 18 19  1  0
 19 20  1  0
 20 21  2  0
 21 22  1  0
 22 23  2  0
 23 24  1  0
 24 25  2  0
 24 26  1  0
 26 27  1  0
 27 28  2  0
 27 29  1  0
 29 30  2  0
 30 31  1  0
 31 32  2  0
 32 33  1  0
 33 34  2  0
 34 35  1  0
 35 36  2  0
 36 37  1  0
 37 38  2  0
 38 39  1  0
 39 40  2  0
 40 41  1  0
 41 42  2  0
 42 43  1  0
 43 44  2  0
 44 45  1  0
 23 46  1  0
 46 47  2  0
 11 48  1  0
 48 49  1  0
 49 50  2  0
 49  8  1  0
 19 15  1  0
 46 20  1  0
 45 29  1  0
 41 32  1  0
 45 35  1  0
M  END
>  <Title>  (11) 
idAARGgen6

$$$$

     RDKit          2D

 52 59  0  0  0  0  0  0  0  0999 V2000
    6.2950   12.1983    0.0000 C   0  0  0  0  0  0  0  0  0  0  0  0
    5.2665   11.1063    0.0000 C   0  0  0  0  0  0  0  0  0  0  0  0
    5.6979    9.6697    0.0000 C   0  0  0  0  0  0  0  0  0  0  0  0
    4.6695    8.5778    0.0000 C   0  0  0  0  0  0  0  0  0  0  0  0
    3.2096    8.9225    0.0000 C   0  0  0  0  0  0  0  0  0  0  0  0
    2.1811    7.8306    0.0000 C   0  0  0  0  0  0  0  0  0  0  0  0
    2.4600    6.3568    0.0000 N   0  0  0  0  0  0  0  0  0  0  0  0
    1.1445    5.6361    0.0000 N   0  0  0  0  0  0  0  0  0  0  0  0
    0.0526    6.6645    0.0000 N   0  0  0  0  0  0  0  0  0  0  0  0
    0.6933    8.0208    0.0000 N   0  0  0  0  0  0  0  0  0  0  0  0
   -0.0274    9.3364    0.0000 C   0  0  0  0  0  0  0  0  0  0  0  0
    0.7516   10.6182    0.0000 C   0  0  0  0  0  0  0  0  0  0  0  0
    0.0309   11.9338    0.0000 C   0  0  0  0  0  0  0  0  0  0  0  0
   -1.4687   11.9674    0.0000 N   0  0  0  0  0  0  0  0  0  0  0  0
   -2.2477   10.6856    0.0000 N   0  0  0  0  0  0  0  0  0  0  0  0
   -1.5270    9.3700    0.0000 C   0  0  0  0  0  0  0  0  0  0  0  0
   -2.3060    8.0881    0.0000 C   0  0  0  0  0  0  0  0  0  0  0  0
   -1.2694    7.0039    0.0000 C   0  0  0  0  0  0  0  0  0  0  0  0
   -0.9138    5.5467    0.0000 C   0  0  0  0  0  0  0  0  0  0  0  0
   -1.3344    4.1069    0.0000 C   0  0  0  0  0  0  0  0  0  0  0  0
    0.1520    3.9056    0.0000 C   0  0  0  0  0  0  0  0  0  0  0  0
    1.0468    4.7275    0.0000 O   0  0  0  0  0  0  0  0  0  0  0  0
    0.9214    2.6179    0.0000 N   0  0  0  0  0  0  0  0  0  0  0  0
    0.3943    1.2135    0.0000 C   0  0  0  0  0  0  0  0  0  0  0  0
    1.2760    0.0000    0.0000 N   0  0  0  0  0  0  0  0  0  0  0  0
    0.3943   -1.2135    0.0000 N   0  0  0  0  0  0  0  0  0  0  0  0
   -1.0323   -0.7500    0.0000 N   0  0  0  0  0  0  0  0  0  0  0  0
   -1.0323    0.7500    0.0000 N   0  0  0  0  0  0  0  0  0  0  0  0
   -2.2841    1.5763    0.0000 C   0  0  0  0  0  0  0  0  0  0  0  0
   -3.5718    0.8070    0.0000 C   0  0  0  0  0  0  0  0  0  0  0  0
   -3.5494   -0.6928    0.0000 C   0  0  0  0  0  0  0  0  0  0  0  0
   -4.8371   -1.4622    0.0000 C   0  0  0  0  0  0  0  0  0  0  0  0
   -4.9715   -2.9561    0.0000 C   0  0  0  0  0  0  0  0  0  0  0  0
   -6.4339   -3.2899    0.0000 C   0  0  0  0  0  0  0  0  0  0  0  0
   -7.2033   -2.0023    0.0000 C   0  0  0  0  0  0  0  0  0  0  0  0
   -6.2163   -0.8726    0.0000 C   0  0  0  0  0  0  0  0  0  0  0  0
   -2.4186    3.0703    0.0000 C   0  0  0  0  0  0  0  0  0  0  0  0
   -3.8758    2.7147    0.0000 N   0  0  0  0  0  0  0  0  0  0  0  0
   -5.3157    3.1353    0.0000 N   0  0  0  0  0  0  0  0  0  0  0  0
   -6.3522    4.2195    0.0000 N   0  0  0  0  0  0  0  0  0  0  0  0
   -6.7079    5.6768    0.0000 N   0  0  0  0  0  0  0  0  0  0  0  0
   -6.2872    7.1166    0.0000 C   0  0  0  0  0  0  0  0  0  0  0  0
   -7.2826    8.2388    0.0000 C   0  0  0  0  0  0  0  0  0  0  0  0
   -7.0258    9.7166    0.0000 C   0  0  0  0  0  0  0  0  0  0  0  0
   -5.7102   10.4373    0.0000 C   0  0  0  0  0  0  0  0  0  0  0  0
   -4.3266    9.8581    0.0000 C   0  0  0  0  0  0  0  0  0  0  0  0
   -3.7458    8.5088    0.0000 C   0  0  0  0  0  0  0  0  0  0  0  0
   -5.2030    8.1532    0.0000 C   0  0  0  0  0  0  0  0  0  0  0  0
   -5.9237    9.4687    0.0000 O   0  0  0  0  0  0  0  0  0  0  0  0
    2.7782   10.3591    0.0000 C   0  0  0  0  0  0  0  0  0  0  0  0
    1.4451   11.0469    0.0000 O   0  0  0  0  0  0  0  0  0  0  0  0
    3.8067   11.4511    0.0000 N   0  0  0  0  0  0  0  0  0  0  0  0
  1  2  1  0
  2  3  2  0
  3  4  1  0
  4  5  2  0
  5  6  1  0
  6  7  2  0
  7  8  1  0
  8  9  2  0
  9 10  1  0
 10 11  1  0
 11 12  2  0
 12 13  1  0
 13 14  2  0
 14 15  1  0
 15 16  2  0
 16 17  1  0
 17 18  2  0
 18 19  1  0
 19 20  2  0
 20 21  1  0
 21 22  2  0
 21 23  1  0
 23 24  1  0
 24 25  2  0
 25 26  1  0
 26 27  2  0
 27 28  1  0
 28 29  1  0
 29 30  2  3
 30 31  1  0
 31 32  2  3
 32 33  1  0
 33 34  2  0
 34 35  1  0
 35 36  2  0
 29 37  1  0
 37 38  2  0
 38 39  1  0
 39 40  2  0
 40 41  1  0
 41 42  2  0
 42 43  1  0
 43 44  1  0
 44 45  2  0
 45 46  1  0
 46 47  2  0
 47 48  1  0
 48 49  2  0
  5 50  1  0
 50 51  2  0
 50 52  1  0
 52  2  1  0
 10  6  1  0
 16 11  1  0
 47 17  1  0
 37 20  1  0
 48 42  1  0
 28 24  1  0
 36 32  1  0
M  END
>  <Title>  (12) 
idAANAgen8

$$$$

     RDKit          2D

 50 57  0  0  0  0  0  0  0  0999 V2000
  -14.9962    5.8473    0.0000 C   0  0  0  0  0  0  0  0  0  0  0  0
  -13.7827    4.9656    0.0000 C   0  0  0  0  0  0  0  0  0  0  0  0
  -13.9395    3.4739    0.0000 C   0  0  0  0  0  0  0  0  0  0  0  0
  -12.7260    2.5922    0.0000 C   0  0  0  0  0  0  0  0  0  0  0  0
  -11.3556    3.2023    0.0000 C   0  0  0  0  0  0  0  0  0  0  0  0
  -10.1421    2.3206    0.0000 C   0  0  0  0  0  0  0  0  0  0  0  0
  -10.2989    0.8288    0.0000 O   0  0  0  0  0  0  0  0  0  0  0  0
   -8.7718    2.9307    0.0000 N   0  0  0  0  0  0  0  0  0  0  0  0
   -7.5583    2.0490    0.0000 C   0  0  0  0  0  0  0  0  0  0  0  0
   -7.5583    0.5490    0.0000 N   0  0  0  0  0  0  0  0  0  0  0  0
   -6.1317    0.0855    0.0000 N   0  0  0  0  0  0  0  0  0  0  0  0
   -5.2500    1.2990    0.0000 N   0  0  0  0  0  0  0  0  0  0  0  0
   -6.1317    2.5126    0.0000 N   0  0  0  0  0  0  0  0  0  0  0  0
   -5.6682    3.9391    0.0000 C   0  0  0  0  0  0  0  0  0  0  0  0
   -6.5498    5.1527    0.0000 C   0  0  0  0  0  0  0  0  0  0  0  0
   -5.6682    6.3662    0.0000 N   0  0  0  0  0  0  0  0  0  0  0  0
   -4.2416    5.9027    0.0000 N   0  0  0  0  0  0  0  0  0  0  0  0
   -4.2416    4.4027    0.0000 N   0  0  0  0  0  0  0  0  0  0  0  0
   -3.0280    3.5210    0.0000 C   0  0  0  0  0  0  0  0  0  0  0  0
   -3.1848    2.0292    0.0000 C   0  0  0  0  0  0  0  0  0  0  0  0
   -1.9713    1.1475    0.0000 C   0  0  0  0  0  0  0  0  0  0  0  0
   -0.6010    1.7576    0.0000 C   0  0  0  0  0  0  0  0  0  0  0  0
    0.6125    0.8760    0.0000 C   0  0  0  0  0  0  0  0  0  0  0  0
    1.9829    1.4861    0.0000 C   0  0  0  0  0  0  0  0  0  0  0  0
    3.1964    0.6044    0.0000 C   0  0  0  0  0  0  0  0  0  0  0  0
    3.0396   -0.8874    0.0000 N   0  0  0  0  0  0  0  0  0  0  0  0
    1.6693   -1.4975    0.0000 N   0  0  0  0  0  0  0  0  0  0  0  0
    0.4557   -0.6158    0.0000 C   0  0  0  0  0  0  0  0  0  0  0  0
   -0.9146   -1.2259    0.0000 C   0  0  0  0  0  0  0  0  0  0  0  0
   -2.2136   -0.4759    0.0000 N   0  0  0  0  0  0  0  0  0  0  0  0
   -3.3283   -1.4796    0.0000 N   0  0  0  0  0  0  0  0  0  0  0  0
   -2.7182   -2.8499    0.0000 N   0  0  0  0  0  0  0  0  0  0  0  0
   -1.2264   -2.6931    0.0000 N   0  0  0  0  0  0  0  0  0  0  0  0
   -0.2227   -3.8079    0.0000 C   0  0  0  0  0  0  0  0  0  0  0  0
    1.2445   -3.4960    0.0000 C   0  0  0  0  0  0  0  0  0  0  0  0
    2.2482   -4.6107    0.0000 C   0  0  0  0  0  0  0  0  0  0  0  0
    1.7846   -6.0373    0.0000 C   0  0  0  0  0  0  0  0  0  0  0  0
    2.7883   -7.1520    0.0000 C   0  0  0  0  0  0  0  0  0  0  0  0
    4.2556   -6.8401    0.0000 C   0  0  0  0  0  0  0  0  0  0  0  0
    5.2593   -7.9549    0.0000 C   0  0  0  0  0  0  0  0  0  0  0  0
    4.7957   -9.3815    0.0000 C   0  0  0  0  0  0  0  0  0  0  0  0
    3.3285   -9.6933    0.0000 C   0  0  0  0  0  0  0  0  0  0  0  0
    2.3248   -8.5786    0.0000 C   0  0  0  0  0  0  0  0  0  0  0  0
    0.3174   -6.3492    0.0000 C   0  0  0  0  0  0  0  0  0  0  0  0
   -0.6863   -5.2344    0.0000 C   0  0  0  0  0  0  0  0  0  0  0  0
   -0.4442    3.2494    0.0000 C   0  0  0  0  0  0  0  0  0  0  0  0
    0.9261    3.8595    0.0000 O   0  0  0  0  0  0  0  0  0  0  0  0
   -1.6577    4.1311    0.0000 N   0  0  0  0  0  0  0  0  0  0  0  0
  -11.1988    4.6941    0.0000 C   0  0  0  0  0  0  0  0  0  0  0  0
  -12.4124    5.5757    0.0000 C   0  0  0  0  0  0  0  0  0  0  0  0
  1  2  1  0
  2  3  2  0
  3  4  1  0
  4  5  2  0
  5  6  1  0
  6  7  2  0
  6  8  1  0
  8  9  1  0
  9 10  2  0
 10 11  1  0
 11 12  2  0
 12 13  1  0
 13 14  1  0
 14 15  2  0
 15 16  1  0
 16 17  2  0
 17 18  1  0
 18 19  1  0
 19 20  2  0
 20 21  1  0
 21 22  2  0
 22 23  1  0
 23 24  2  0
 24 25  1  0
 25 26  2  0
 26 27  1  0
 27 28  2  0
 28 29  1  0
 29 30  2  0
 30 31  1  0
 31 32  2  0
 32 33  1  0
 33 34  1  0
 34 35  2  0
 35 36  1  0
 36 37  2  0
 37 38  1  0
 38 39  2  0
 39 40  1  0
 40 41  2  0
 41 42  1  0
 42 43  2  0
 37 44  1  0
 44 45  1  0
 22 46  1  0
 46 47  2  0
 46 48  1  0
  5 49  1  0
 49 50  2  0
 50  2  1  0
 13  9  1  0
 18 14  1  0
 48 19  1  0
 28 23  1  0
 33 29  1  0
 45 34  1  0
 43 38  1  0
M  END
>  <Title>  (13) 
idABDFgen6

$$$$

     RDKit          2D

 58 66  0  0  0  0  0  0  0  0999 V2000
    3.7500   -1.2990    0.0000 C   0  0  0  0  0  0  0  0  0  0  0  0
    3.0000    0.0000    0.0000 O   0  0  0  0  0  0  0  0  0  0  0  0
    1.5000    0.0000    0.0000 C   0  0  0  0  0  0  0  0  0  0  0  0
    0.7500   -1.2990    0.0000 C   0  0  0  0  0  0  0  0  0  0  0  0
   -0.7500   -1.2990    0.0000 C   0  0  0  0  0  0  0  0  0  0  0  0
   -1.5000    0.0000    0.0000 C   0  0  0  0  0  0  0  0  0  0  0  0
   -3.0000    0.0000    0.0000 C   0  0  0  0  0  0  0  0  0  0  0  0
   -3.8817   -1.2135    0.0000 N   0  0  0  0  0  0  0  0  0  0  0  0
   -5.3083   -0.7500    0.0000 N   0  0  0  0  0  0  0  0  0  0  0  0
   -5.3083    0.7500    0.0000 N   0  0  0  0  0  0  0  0  0  0  0  0
   -3.8817    1.2135    0.0000 N   0  0  0  0  0  0  0  0  0  0  0  0
   -3.4182    2.6401    0.0000 C   0  0  0  0  0  0  0  0  0  0  0  0
   -1.9509    2.9520    0.0000 C   0  0  0  0  0  0  0  0  0  0  0  0
   -1.4874    4.3786    0.0000 C   0  0  0  0  0  0  0  0  0  0  0  0
   -2.4911    5.4933    0.0000 C   0  0  0  0  0  0  0  0  0  0  0  0
   -2.0276    6.9199    0.0000 C   0  0  0  0  0  0  0  0  0  0  0  0
   -2.9093    8.1334    0.0000 N   0  0  0  0  0  0  0  0  0  0  0  0
   -2.0276    9.3469    0.0000 N   0  0  0  0  0  0  0  0  0  0  0  0
   -0.6010    8.8834    0.0000 N   0  0  0  0  0  0  0  0  0  0  0  0
   -0.6010    7.3834    0.0000 N   0  0  0  0  0  0  0  0  0  0  0  0
    0.6125    6.5017    0.0000 C   0  0  0  0  0  0  0  0  0  0  0  0
    2.0391    6.9652    0.0000 C   0  0  0  0  0  0  0  0  0  0  0  0
    2.9208    5.7517    0.0000 C   0  0  0  0  0  0  0  0  0  0  0  0
    2.0391    4.5382    0.0000 C   0  0  0  0  0  0  0  0  0  0  0  0
    2.5026    3.1116    0.0000 C   0  0  0  0  0  0  0  0  0  0  0  0
    1.4989    1.9969    0.0000 O   0  0  0  0  0  0  0  0  0  0  0  0
    3.9699    2.7997    0.0000 N   0  0  0  0  0  0  0  0  0  0  0  0
    4.9736    3.9145    0.0000 C   0  0  0  0  0  0  0  0  0  0  0  0
    4.6617    5.3817    0.0000 N   0  0  0  0  0  0  0  0  0  0  0  0
    5.9607    6.1317    0.0000 N   0  0  0  0  0  0  0  0  0  0  0  0
    7.0754    5.1280    0.0000 N   0  0  0  0  0  0  0  0  0  0  0  0
    6.4653    3.7577    0.0000 N   0  0  0  0  0  0  0  0  0  0  0  0
    0.6125    5.0017    0.0000 C   0  0  0  0  0  0  0  0  0  0  0  0
   -0.6010    4.1200    0.0000 O   0  0  0  0  0  0  0  0  0  0  0  0
   -3.9583    5.1814    0.0000 C   0  0  0  0  0  0  0  0  0  0  0  0
   -4.4218    3.7548    0.0000 C   0  0  0  0  0  0  0  0  0  0  0  0
   -5.8891    3.4430    0.0000 C   0  0  0  0  0  0  0  0  0  0  0  0
   -6.8928    4.5577    0.0000 C   0  0  0  0  0  0  0  0  0  0  0  0
   -8.3600    4.2458    0.0000 C   0  0  0  0  0  0  0  0  0  0  0  0
   -8.8235    2.8192    0.0000 C   0  0  0  0  0  0  0  0  0  0  0  0
  -10.2907    2.5074    0.0000 C   0  0  0  0  0  0  0  0  0  0  0  0
  -10.7543    1.0808    0.0000 O   0  0  0  0  0  0  0  0  0  0  0  0
  -11.2944    3.6221    0.0000 N   0  0  0  0  0  0  0  0  0  0  0  0
  -12.7617    3.3102    0.0000 C   0  0  0  0  0  0  0  0  0  0  0  0
  -13.3718    1.9399    0.0000 N   0  0  0  0  0  0  0  0  0  0  0  0
  -14.8635    2.0967    0.0000 N   0  0  0  0  0  0  0  0  0  0  0  0
  -15.1754    3.5639    0.0000 N   0  0  0  0  0  0  0  0  0  0  0  0
  -13.8764    4.3139    0.0000 N   0  0  0  0  0  0  0  0  0  0  0  0
  -13.7196    5.8057    0.0000 C   0  0  0  0  0  0  0  0  0  0  0  0
  -12.3493    6.4158    0.0000 C   0  0  0  0  0  0  0  0  0  0  0  0
  -12.1925    7.9076    0.0000 C   0  0  0  0  0  0  0  0  0  0  0  0
  -13.4060    8.7893    0.0000 C   0  0  0  0  0  0  0  0  0  0  0  0
  -14.7763    8.1791    0.0000 C   0  0  0  0  0  0  0  0  0  0  0  0
  -14.9331    6.6874    0.0000 C   0  0  0  0  0  0  0  0  0  0  0  0
   -7.8198    1.7045    0.0000 C   0  0  0  0  0  0  0  0  0  0  0  0
   -6.3526    2.0164    0.0000 C   0  0  0  0  0  0  0  0  0  0  0  0
   -0.7500    1.2990    0.0000 C   0  0  0  0  0  0  0  0  0  0  0  0
    0.7500    1.2990    0.0000 C   0  0  0  0  0  0  0  0  0  0  0  0
  1  2  1  0
  2  3  1  0
  3  4  2  0
  4  5  1  0
  5  6  2  0
  6  7  1  0
  7  8  2  0
  8  9  1  0
  9 10  2  0
 10 11  1  0
 11 12  1  0
 12 13  2  0
 13 14  1  0
 14 15  2  0
 15 16  1  0
 16 17  2  0
 17 18  1  0
 18 19  2  0
 19 20  1  0
 20 21  1  0
 21 22  2  0
 22 23  1  0
 23 24  2  0
 24 25  1  0
 25 26  2  0
 25 27  1  0
 27 28  1  0
 28 29  2  0
 29 30  1  0
 30 31  2  0
 31 32  1  0
 24 33  1  0
 33 34  2  0
 15 35  1  0
 35 36  2  0
 36 37  1  0
 37 38  2  0
 38 39  1  0
 39 40  2  0
 40 41  1  0
 41 42  2  0
 41 43  1  0
 43 44  1  0
 44 45  2  0
 45 46  1  0
 46 47  2  0
 47 48  1  0
 48 49  1  0
 49 50  2  0
 50 51  1  0
 51 52  2  0
 52 53  1  0
 53 54  2  0
 40 55  1  0
 55 56  2  0
  6 57  1  0
 57 58  2  0
 58  3  1  0
 11  7  1  0
 36 12  1  0
 56 37  1  0
 20 16  1  0
 33 21  1  0
 48 44  1  0
 54 49  1  0
 32 28  1  0
M  END
>  <Title>  (14) 
idACPAgen10

$$$$

     RDKit          2D

 61 68  0  0  0  0  0  0  0  0999 V2000
    6.4771    6.7521    0.0000 C   0  0  0  0  0  0  0  0  0  0  0  0
    7.1978    5.4365    0.0000 C   0  0  0  0  0  0  0  0  0  0  0  0
    6.3252    4.2165    0.0000 C   0  0  0  0  0  0  0  0  0  0  0  0
    6.7351    2.7735    0.0000 C   0  0  0  0  0  0  0  0  0  0  0  0
    8.1187    2.1943    0.0000 C   0  0  0  0  0  0  0  0  0  0  0  0
    8.1972    0.6964    0.0000 C   0  0  0  0  0  0  0  0  0  0  0  0
    9.4552   -0.1206    0.0000 N   0  0  0  0  0  0  0  0  0  0  0  0
    9.0670   -1.5695    0.0000 N   0  0  0  0  0  0  0  0  0  0  0  0
    7.5691   -1.6480    0.0000 N   0  0  0  0  0  0  0  0  0  0  0  0
    7.0315   -0.2476    0.0000 N   0  0  0  0  0  0  0  0  0  0  0  0
    5.5826    0.1406    0.0000 C   0  0  0  0  0  0  0  0  0  0  0  0
    4.8326    1.4397    0.0000 C   0  0  0  0  0  0  0  0  0  0  0  0
    5.2209    2.8886    0.0000 C   0  0  0  0  0  0  0  0  0  0  0  0
    3.5336    0.6897    0.0000 C   0  0  0  0  0  0  0  0  0  0  0  0
    2.2217    1.4170    0.0000 O   0  0  0  0  0  0  0  0  0  0  0  0
    4.2836   -0.6094    0.0000 N   0  0  0  0  0  0  0  0  0  0  0  0
    3.8954   -2.0583    0.0000 C   0  0  0  0  0  0  0  0  0  0  0  0
    4.9560   -3.1189    0.0000 C   0  0  0  0  0  0  0  0  0  0  0  0
    4.5678   -4.5678    0.0000 C   0  0  0  0  0  0  0  0  0  0  0  0
    3.1189   -4.9560    0.0000 C   0  0  0  0  0  0  0  0  0  0  0  0
    2.0583   -3.8954    0.0000 C   0  0  0  0  0  0  0  0  0  0  0  0
    2.4465   -2.4465    0.0000 C   0  0  0  0  0  0  0  0  0  0  0  0
    1.3858   -1.3858    0.0000 C   0  0  0  0  0  0  0  0  0  0  0  0
    1.9598    0.0000    0.0000 C   0  0  0  0  0  0  0  0  0  0  0  0
    1.3858    1.3858    0.0000 C   0  0  0  0  0  0  0  0  0  0  0  0
    0.0000    1.9598    0.0000 C   0  0  0  0  0  0  0  0  0  0  0  0
    0.0000    3.4598    0.0000 C   0  0  0  0  0  0  0  0  0  0  0  0
   -1.2990    4.2098    0.0000 O   0  0  0  0  0  0  0  0  0  0  0  0
    1.2990    4.2098    0.0000 O   0  0  0  0  0  0  0  0  0  0  0  0
   -1.3858    1.3858    0.0000 C   0  0  0  0  0  0  0  0  0  0  0  0
   -2.4465    2.4465    0.0000 C   0  0  0  0  0  0  0  0  0  0  0  0
   -1.9598    0.0000    0.0000 C   0  0  0  0  0  0  0  0  0  0  0  0
   -1.3858   -1.3858    0.0000 C   0  0  0  0  0  0  0  0  0  0  0  0
   -0.0000   -1.9598    0.0000 C   0  0  0  0  0  0  0  0  0  0  0  0
   -0.0000   -3.4598    0.0000 C   0  0  0  0  0  0  0  0  0  0  0  0
    1.2135   -4.3415    0.0000 C   0  0  0  0  0  0  0  0  0  0  0  0
    0.7500   -5.7681    0.0000 C   0  0  0  0  0  0  0  0  0  0  0  0
   -0.7500   -5.7681    0.0000 C   0  0  0  0  0  0  0  0  0  0  0  0
   -1.6317   -6.9816    0.0000 C   0  0  0  0  0  0  0  0  0  0  0  0
   -1.0216   -8.3520    0.0000 O   0  0  0  0  0  0  0  0  0  0  0  0
   -3.1235   -6.8248    0.0000 N   0  0  0  0  0  0  0  0  0  0  0  0
   -4.0051   -8.0384    0.0000 C   0  0  0  0  0  0  0  0  0  0  0  0
   -3.3950   -9.4087    0.0000 O   0  0  0  0  0  0  0  0  0  0  0  0
   -5.4969   -7.8816    0.0000 C   0  0  0  0  0  0  0  0  0  0  0  0
   -6.5006   -8.9963    0.0000 C   0  0  0  0  0  0  0  0  0  0  0  0
   -7.8709   -8.3862    0.0000 C   0  0  0  0  0  0  0  0  0  0  0  0
   -7.7141   -6.8944    0.0000 C   0  0  0  0  0  0  0  0  0  0  0  0
   -8.8289   -5.8907    0.0000 C   0  0  0  0  0  0  0  0  0  0  0  0
   -8.5170   -4.4235    0.0000 C   0  0  0  0  0  0  0  0  0  0  0  0
   -9.6317   -3.4198    0.0000 C   0  0  0  0  0  0  0  0  0  0  0  0
  -11.0583   -3.8833    0.0000 C   0  0  0  0  0  0  0  0  0  0  0  0
  -11.3702   -5.3505    0.0000 C   0  0  0  0  0  0  0  0  0  0  0  0
  -10.2554   -6.3542    0.0000 C   0  0  0  0  0  0  0  0  0  0  0  0
   -6.2469   -6.5825    0.0000 C   0  0  0  0  0  0  0  0  0  0  0  0
   -5.6368   -5.2122    0.0000 O   0  0  0  0  0  0  0  0  0  0  0  0
   -1.2135   -4.3415    0.0000 C   0  0  0  0  0  0  0  0  0  0  0  0
   -2.6401   -3.8780    0.0000 O   0  0  0  0  0  0  0  0  0  0  0  0
    9.4343    2.9150    0.0000 N   0  0  0  0  0  0  0  0  0  0  0  0
    9.6911    4.3929    0.0000 C   0  0  0  0  0  0  0  0  0  0  0  0
   11.1340    4.8027    0.0000 O   0  0  0  0  0  0  0  0  0  0  0  0
    8.6957    5.5150    0.0000 N   0  0  0  0  0  0  0  0  0  0  0  0
  1  2  1  0
  2  3  2  0
  3  4  1  0
  4  5  2  0
  5  6  1  0
  6  7  2  0
  7  8  1  0
  8  9  2  0
  9 10  1  0
 10 11  1  0
 11 12  2  0
 12 13  1  0
 12 14  1  0
 14 15  2  0
 14 16  1  0
 16 17  1  0
 17 18  2  0
 18 19  1  0
 19 20  2  0
 20 21  1  0
 21 22  2  0
 22 23  1  0
 23 24  2  0
 24 25  1  0
 25 26  2  0
 26 27  1  0
 27 28  2  0
 27 29  1  0
 26 30  1  0
 30 31  1  0
 30 32  2  0
 32 33  1  0
 33 34  2  0
 34 35  1  0
 35 36  2  0
 36 37  1  0
 37 38  2  0
 38 39  1  0
 39 40  2  0
 39 41  1  0
 41 42  1  0
 42 43  2  0
 42 44  1  0
 44 45  2  0
 45 46  1  0
 46 47  2  0
 47 48  1  0
 48 49  2  0
 49 50  1  0
 50 51  2  0
 51 52  1  0
 52 53  2  0
 47 54  1  0
 54 55  2  0
 38 56  1  0
 56 57  2  0
  5 58  1  0
 58 59  1  0
 59 60  2  0
 59 61  1  0
 61  2  1  0
 10  6  1  0
 16 11  1  0
 22 17  1  0
 34 23  1  0
 56 35  1  0
 54 44  1  0
 53 48  1  0
M  END
>  <Title>  (15) 
idAAUVgen6

$$$$

     RDKit          2D

 64 73  0  0  0  0  0  0  0  0999 V2000
   -1.3240  -10.9227    0.0000 C   0  0  0  0  0  0  0  0  0  0  0  0
   -0.7500   -9.5369    0.0000 C   0  0  0  0  0  0  0  0  0  0  0  0
    0.7500   -9.5369    0.0000 C   0  0  0  0  0  0  0  0  0  0  0  0
    1.8107   -8.4762    0.0000 C   0  0  0  0  0  0  0  0  0  0  0  0
    1.8107   -6.9762    0.0000 C   0  0  0  0  0  0  0  0  0  0  0  0
    3.1965   -6.4022    0.0000 C   0  0  0  0  0  0  0  0  0  0  0  0
    4.3865   -7.3153    0.0000 C   0  0  0  0  0  0  0  0  0  0  0  0
    5.7723   -6.7413    0.0000 C   0  0  0  0  0  0  0  0  0  0  0  0
    6.1225   -5.2828    0.0000 N   0  0  0  0  0  0  0  0  0  0  0  0
    7.6179   -5.1651    0.0000 N   0  0  0  0  0  0  0  0  0  0  0  0
    8.1919   -6.5509    0.0000 N   0  0  0  0  0  0  0  0  0  0  0  0
    7.0513   -7.5251    0.0000 N   0  0  0  0  0  0  0  0  0  0  0  0
    7.1690   -9.0204    0.0000 C   0  0  0  0  0  0  0  0  0  0  0  0
    8.4479   -9.8042    0.0000 C   0  0  0  0  0  0  0  0  0  0  0  0
    8.0978  -11.2627    0.0000 C   0  0  0  0  0  0  0  0  0  0  0  0
    6.6024  -11.3804    0.0000 C   0  0  0  0  0  0  0  0  0  0  0  0
    5.8186  -12.6594    0.0000 C   0  0  0  0  0  0  0  0  0  0  0  0
    4.3233  -12.7771    0.0000 N   0  0  0  0  0  0  0  0  0  0  0  0
    3.9731  -14.2356    0.0000 N   0  0  0  0  0  0  0  0  0  0  0  0
    5.2521  -15.0194    0.0000 N   0  0  0  0  0  0  0  0  0  0  0  0
    6.3927  -14.0452    0.0000 N   0  0  0  0  0  0  0  0  0  0  0  0
    7.8512  -14.3954    0.0000 C   0  0  0  0  0  0  0  0  0  0  0  0
    8.7996  -13.2332    0.0000 C   0  0  0  0  0  0  0  0  0  0  0  0
   10.2995  -13.2500    0.0000 C   0  0  0  0  0  0  0  0  0  0  0  0
   11.2215  -14.4332    0.0000 C   0  0  0  0  0  0  0  0  0  0  0  0
    9.3657  -15.4149    0.0000 C   0  0  0  0  0  0  0  0  0  0  0  0
    9.1683  -14.0305    0.0000 O   0  0  0  0  0  0  0  0  0  0  0  0
    7.9944  -16.9534    0.0000 N   0  0  0  0  0  0  0  0  0  0  0  0
    5.4227  -19.8509    0.0000 C   0  0  0  0  0  0  0  0  0  0  0  0
    6.5247  -20.8685    0.0000 C   0  0  0  0  0  0  0  0  0  0  0  0
    8.0020  -21.1288    0.0000 N   0  0  0  0  0  0  0  0  0  0  0  0
    9.3854  -20.5491    0.0000 N   0  0  0  0  0  0  0  0  0  0  0  0
   10.2359  -19.3135    0.0000 C   0  0  0  0  0  0  0  0  0  0  0  0
   10.2833  -17.8143    0.0000 C   0  0  0  0  0  0  0  0  0  0  0  0
    9.5126  -16.5274    0.0000 C   0  0  0  0  0  0  0  0  0  0  0  0
   10.8713  -15.8917    0.0000 C   0  0  0  0  0  0  0  0  0  0  0  0
   12.0335  -16.8401    0.0000 O   0  0  0  0  0  0  0  0  0  0  0  0
    8.1686  -15.8614    0.0000 N   0  0  0  0  0  0  0  0  0  0  0  0
    6.6778  -16.0278    0.0000 N   0  0  0  0  0  0  0  0  0  0  0  0
    5.5137  -16.9738    0.0000 N   0  0  0  0  0  0  0  0  0  0  0  0
    5.0458  -18.3990    0.0000 N   0  0  0  0  0  0  0  0  0  0  0  0
    6.0284   -9.9946    0.0000 C   0  0  0  0  0  0  0  0  0  0  0  0
    4.5698   -9.6444    0.0000 O   0  0  0  0  0  0  0  0  0  0  0  0
    0.7500   -5.9156    0.0000 C   0  0  0  0  0  0  0  0  0  0  0  0
    1.9635   -5.0339    0.0000 C   0  0  0  0  0  0  0  0  0  0  0  0
    2.4271   -3.6073    0.0000 C   0  0  0  0  0  0  0  0  0  0  0  0
    1.9635   -2.1807    0.0000 C   0  0  0  0  0  0  0  0  0  0  0  0
    3.1771   -1.2990    0.0000 C   0  0  0  0  0  0  0  0  0  0  0  0
    3.1771    0.2010    0.0000 N   0  0  0  0  0  0  0  0  0  0  0  0
    4.6036    0.6645    0.0000 N   0  0  0  0  0  0  0  0  0  0  0  0
    5.4853   -0.5490    0.0000 N   0  0  0  0  0  0  0  0  0  0  0  0
    4.6036   -1.7626    0.0000 N   0  0  0  0  0  0  0  0  0  0  0  0
    0.7500   -1.2990    0.0000 C   0  0  0  0  0  0  0  0  0  0  0  0
    1.5000    0.0000    0.0000 C   0  0  0  0  0  0  0  0  0  0  0  0
    0.7500    1.2990    0.0000 C   0  0  0  0  0  0  0  0  0  0  0  0
   -0.7500    1.2990    0.0000 C   0  0  0  0  0  0  0  0  0  0  0  0
   -1.5000    0.0000    0.0000 C   0  0  0  0  0  0  0  0  0  0  0  0
   -0.7500   -1.2990    0.0000 C   0  0  0  0  0  0  0  0  0  0  0  0
   -1.9635   -2.1807    0.0000 C   0  0  0  0  0  0  0  0  0  0  0  0
   -2.4271   -3.6073    0.0000 C   0  0  0  0  0  0  0  0  0  0  0  0
   -1.9635   -5.0339    0.0000 C   0  0  0  0  0  0  0  0  0  0  0  0
   -0.7500   -5.9156    0.0000 C   0  0  0  0  0  0  0  0  0  0  0  0
   -1.8107   -6.9762    0.0000 C   0  0  0  0  0  0  0  0  0  0  0  0
   -1.8107   -8.4762    0.0000 C   0  0  0  0  0  0  0  0  0  0  0  0
  1  2  1  0
  2  3  2  0
  3  4  1  0
  4  5  2  0
  5  6  1  0
  6  7  1  0
  7  8  1  0
  8  9  2  0
  9 10  1  0
 10 11  2  0
 11 12  1  0
 12 13  1  0
 13 14  2  0
 14 15  1  0
 15 16  2  0
 16 17  1  0
 17 18  2  0
 18 19  1  0
 19 20  2  0
 20 21  1  0
 21 22  1  0
 22 23  2  0
 23 24  1  0
 24 25  2  0
 25 26  1  0
 26 27  2  0
 26 28  1  0
 28 29  1  0
 29 30  1  0
 30 31  2  0
 31 32  1  0
 32 33  2  0
 33 34  1  0
 34 35  2  0
 35 36  1  0
 36 37  2  0
 35 38  1  0
 38 39  1  0
 39 40  2  0
 40 41  1  0
 16 42  1  0
 42 43  2  0
  5 44  1  0
 44 45  2  0
 45 46  1  0
 46 47  2  0
 47 48  1  0
 48 49  2  0
 49 50  1  0
 50 51  2  0
 51 52  1  0
 47 53  1  0
 53 54  2  0
 54 55  1  0
 55 56  2  0
 56 57  1  0
 57 58  2  0
 58 59  1  0
 59 60  2  0
 60 61  1  0
 61 62  2  0
 62 63  1  0
 63 64  2  0
 64  2  1  0
 12  8  1  0
 42 13  1  0
 62 44  1  0
 21 17  1  0
 38 22  1  0
 52 48  1  0
 58 53  1  0
 36 25  1  0
 41 29  2  0
M  END
>  <Title>  (16) 
idABDEgen8

$$$$

     RDKit          2D

 54 62  0  0  0  0  0  0  0  0999 V2000
   -5.0710    6.1583    0.0000 C   0  0  0  0  0  0  0  0  0  0  0  0
   -3.6893    5.5744    0.0000 C   0  0  0  0  0  0  0  0  0  0  0  0
   -3.8603    4.0842    0.0000 C   0  0  0  0  0  0  0  0  0  0  0  0
   -3.1985    2.7381    0.0000 C   0  0  0  0  0  0  0  0  0  0  0  0
   -1.9140    1.9635    0.0000 C   0  0  0  0  0  0  0  0  0  0  0  0
   -1.0323    3.1771    0.0000 N   0  0  0  0  0  0  0  0  0  0  0  0
    0.3943    2.7135    0.0000 C   0  0  0  0  0  0  0  0  0  0  0  0
    0.3943    1.2135    0.0000 C   0  0  0  0  0  0  0  0  0  0  0  0
    1.2760    0.0000    0.0000 N   0  0  0  0  0  0  0  0  0  0  0  0
    0.3943   -1.2135    0.0000 N   0  0  0  0  0  0  0  0  0  0  0  0
   -1.0323   -0.7500    0.0000 N   0  0  0  0  0  0  0  0  0  0  0  0
   -1.0323    0.7500    0.0000 N   0  0  0  0  0  0  0  0  0  0  0  0
    1.4075    4.2347    0.0000 C   0  0  0  0  0  0  0  0  0  0  0  0
    1.1518    5.7127    0.0000 C   0  0  0  0  0  0  0  0  0  0  0  0
    0.1375    6.8179    0.0000 C   0  0  0  0  0  0  0  0  0  0  0  0
    0.9121    8.1024    0.0000 N   0  0  0  0  0  0  0  0  0  0  0  0
    0.3282    9.4841    0.0000 N   0  0  0  0  0  0  0  0  0  0  0  0
    1.4618   10.4664    0.0000 N   0  0  0  0  0  0  0  0  0  0  0  0
    2.7463    9.6918    0.0000 N   0  0  0  0  0  0  0  0  0  0  0  0
    2.4066    8.2307    0.0000 C   0  0  0  0  0  0  0  0  0  0  0  0
    3.3889    7.0971    0.0000 N   0  0  0  0  0  0  0  0  0  0  0  0
    2.8983    5.6796    0.0000 N   0  0  0  0  0  0  0  0  0  0  0  0
    3.8806    4.5460    0.0000 N   0  0  0  0  0  0  0  0  0  0  0  0
    5.3535    4.8299    0.0000 N   0  0  0  0  0  0  0  0  0  0  0  0
    5.8441    6.2474    0.0000 N   0  0  0  0  0  0  0  0  0  0  0  0
    4.8618    7.3810    0.0000 N   0  0  0  0  0  0  0  0  0  0  0  0
    5.3524    8.7985    0.0000 C   0  0  0  0  0  0  0  0  0  0  0  0
    4.3701    9.9321    0.0000 C   0  0  0  0  0  0  0  0  0  0  0  0
    4.8607   11.3496    0.0000 C   0  0  0  0  0  0  0  0  0  0  0  0
    6.3336   11.6335    0.0000 C   0  0  0  0  0  0  0  0  0  0  0  0
    7.3159   10.4999    0.0000 C   0  0  0  0  0  0  0  0  0  0  0  0
    6.8253    9.0824    0.0000 C   0  0  0  0  0  0  0  0  0  0  0  0
    7.8076    7.9487    0.0000 C   0  0  0  0  0  0  0  0  0  0  0  0
    7.3170    6.5312    0.0000 C   0  0  0  0  0  0  0  0  0  0  0  0
    8.2992    5.3976    0.0000 C   0  0  0  0  0  0  0  0  0  0  0  0
    9.7721    5.6815    0.0000 C   0  0  0  0  0  0  0  0  0  0  0  0
   10.2627    7.0990    0.0000 C   0  0  0  0  0  0  0  0  0  0  0  0
    9.2804    8.2326    0.0000 C   0  0  0  0  0  0  0  0  0  0  0  0
    9.7711    9.6501    0.0000 N   0  0  0  0  0  0  0  0  0  0  0  0
    8.9126   10.8802    0.0000 N   0  0  0  0  0  0  0  0  0  0  0  0
    9.8173   12.0767    0.0000 N   0  0  0  0  0  0  0  0  0  0  0  0
   11.2348   11.5861    0.0000 N   0  0  0  0  0  0  0  0  0  0  0  0
   11.2062   10.0864    0.0000 C   0  0  0  0  0  0  0  0  0  0  0  0
   12.4027    9.1818    0.0000 C   0  0  0  0  0  0  0  0  0  0  0  0
   12.2176    7.6933    0.0000 C   0  0  0  0  0  0  0  0  0  0  0  0
   13.4141    6.7886    0.0000 C   0  0  0  0  0  0  0  0  0  0  0  0
   14.7958    7.3725    0.0000 C   0  0  0  0  0  0  0  0  0  0  0  0
   15.9923    6.4679    0.0000 C   0  0  0  0  0  0  0  0  0  0  0  0
   14.9809    8.8611    0.0000 N   0  0  0  0  0  0  0  0  0  0  0  0
   13.7844    9.7657    0.0000 C   0  0  0  0  0  0  0  0  0  0  0  0
   13.9696   11.2542    0.0000 O   0  0  0  0  0  0  0  0  0  0  0  0
   -1.3132    7.1992    0.0000 N   0  0  0  0  0  0  0  0  0  0  0  0
   -2.7398    6.7357    0.0000 C   0  0  0  0  0  0  0  0  0  0  0  0
   -3.5865    7.9739    0.0000 O   0  0  0  0  0  0  0  0  0  0  0  0
  1  2  1  0
  2  3  2  0
  3  4  1  0
  4  5  2  0
  5  6  1  0
  6  7  1  0
  7  8  1  0
  8  9  2  0
  9 10  1  0
 10 11  2  0
 11 12  1  0
  7 13  2  0
 13 14  1  0
 14 15  2  0
 15 16  1  0
 16 17  1  0
 17 18  2  0
 18 19  1  0
 19 20  2  0
 20 21  1  0
 21 22  1  0
 22 23  2  0
 23 24  1  0
 24 25  2  0
 25 26  1  0
 26 27  1  0
 27 28  2  0
 28 29  1  0
 29 30  2  0
 30 31  1  0
 31 32  2  0
 32 33  1  0
 33 34  1  0
 34 35  1  0
 35 36  1  0
 36 37  1  0
 37 38  1  0
 38 39  1  0
 39 40  1  0
 40 41  2  0
 41 42  1  0
 42 43  2  0
 43 44  1  0
 44 45  2  0
 45 46  1  0
 46 47  2  0
 47 48  1  0
 47 49  1  0
 49 50  1  0
 50 51  2  0
 15 52  1  0
 52 53  1  0
 53 54  2  0
 53  2  1  0
 12  5  1  0
 20 16  1  0
 26 21  1  0
 32 27  1  0
 38 33  1  0
 43 39  1  0
 50 44  1  0
 12  8  1  0
M  END
>  <Title>  (17) 
idAASMgen8

$$$$

     RDKit          2D

 49 56  0  0  0  0  0  0  0  0999 V2000
    3.2286   -0.0000    0.0000 C   0  0  0  0  0  0  0  0  0  0  0  0
    1.7286    0.0000    0.0000 C   0  0  0  0  0  0  0  0  0  0  0  0
    1.0777    1.3515    0.0000 C   0  0  0  0  0  0  0  0  0  0  0  0
   -0.3846    1.6852    0.0000 C   0  0  0  0  0  0  0  0  0  0  0  0
   -1.5574    0.7500    0.0000 C   0  0  0  0  0  0  0  0  0  0  0  0
   -2.9088    1.4008    0.0000 N   0  0  0  0  0  0  0  0  0  0  0  0
   -3.0209    2.8966    0.0000 N   0  0  0  0  0  0  0  0  0  0  0  0
   -4.3724    3.5475    0.0000 N   0  0  0  0  0  0  0  0  0  0  0  0
   -5.6118    2.7025    0.0000 N   0  0  0  0  0  0  0  0  0  0  0  0
   -5.4997    1.2067    0.0000 N   0  0  0  0  0  0  0  0  0  0  0  0
   -4.1482    0.5558    0.0000 N   0  0  0  0  0  0  0  0  0  0  0  0
   -4.0361   -0.9400    0.0000 C   0  0  0  0  0  0  0  0  0  0  0  0
   -2.7601   -1.7285    0.0000 C   0  0  0  0  0  0  0  0  0  0  0  0
   -3.1157   -3.1857    0.0000 C   0  0  0  0  0  0  0  0  0  0  0  0
   -4.6115   -3.2978    0.0000 C   0  0  0  0  0  0  0  0  0  0  0  0
   -5.4000   -4.5738    0.0000 C   0  0  0  0  0  0  0  0  0  0  0  0
   -4.8312   -5.9618    0.0000 N   0  0  0  0  0  0  0  0  0  0  0  0
   -5.9754   -6.9317    0.0000 N   0  0  0  0  0  0  0  0  0  0  0  0
   -7.2515   -6.1432    0.0000 N   0  0  0  0  0  0  0  0  0  0  0  0
   -6.8958   -4.6859    0.0000 N   0  0  0  0  0  0  0  0  0  0  0  0
   -7.8657   -3.5417    0.0000 C   0  0  0  0  0  0  0  0  0  0  0  0
   -7.3597   -2.1296    0.0000 C   0  0  0  0  0  0  0  0  0  0  0  0
   -8.3296   -0.9854    0.0000 C   0  0  0  0  0  0  0  0  0  0  0  0
   -9.8055   -1.2532    0.0000 C   0  0  0  0  0  0  0  0  0  0  0  0
  -10.3115   -2.6653    0.0000 C   0  0  0  0  0  0  0  0  0  0  0  0
   -9.3416   -3.8095    0.0000 C   0  0  0  0  0  0  0  0  0  0  0  0
   -9.8476   -5.2216    0.0000 C   0  0  0  0  0  0  0  0  0  0  0  0
   -9.0027   -6.4610    0.0000 C   0  0  0  0  0  0  0  0  0  0  0  0
   -9.9202   -7.6476    0.0000 C   0  0  0  0  0  0  0  0  0  0  0  0
  -11.3323   -7.1416    0.0000 C   0  0  0  0  0  0  0  0  0  0  0  0
  -12.5717   -7.9866    0.0000 C   0  0  0  0  0  0  0  0  0  0  0  0
  -12.6166   -9.4859    0.0000 N   0  0  0  0  0  0  0  0  0  0  0  0
  -14.0564   -9.9065    0.0000 N   0  0  0  0  0  0  0  0  0  0  0  0
  -14.9013   -8.6672    0.0000 N   0  0  0  0  0  0  0  0  0  0  0  0
  -13.9838   -7.4806    0.0000 N   0  0  0  0  0  0  0  0  0  0  0  0
  -14.4044   -6.0407    0.0000 C   0  0  0  0  0  0  0  0  0  0  0  0
  -13.3678   -4.9566    0.0000 C   0  0  0  0  0  0  0  0  0  0  0  0
  -13.7884   -3.5167    0.0000 C   0  0  0  0  0  0  0  0  0  0  0  0
  -15.2457   -3.1611    0.0000 C   0  0  0  0  0  0  0  0  0  0  0  0
  -16.2823   -4.2453    0.0000 C   0  0  0  0  0  0  0  0  0  0  0  0
  -15.8616   -5.6851    0.0000 C   0  0  0  0  0  0  0  0  0  0  0  0
  -11.2874   -5.6422    0.0000 C   0  0  0  0  0  0  0  0  0  0  0  0
  -12.4741   -4.7247    0.0000 O   0  0  0  0  0  0  0  0  0  0  0  0
   -5.1804   -1.9099    0.0000 C   0  0  0  0  0  0  0  0  0  0  0  0
   -6.6376   -1.5542    0.0000 O   0  0  0  0  0  0  0  0  0  0  0  0
   -1.5574   -0.7500    0.0000 N   0  0  0  0  0  0  0  0  0  0  0  0
   -0.3846   -1.6852    0.0000 C   0  0  0  0  0  0  0  0  0  0  0  0
   -0.7184   -3.1476    0.0000 O   0  0  0  0  0  0  0  0  0  0  0  0
    1.0777   -1.3515    0.0000 C   0  0  0  0  0  0  0  0  0  0  0  0
  1  2  1  0
  2  3  2  0
  3  4  1  0
  4  5  2  0
  5  6  1  0
  6  7  1  0
  7  8  2  0
  8  9  1  0
  9 10  2  0
 10 11  1  0
 11 12  1  0
 12 13  2  0
 13 14  1  0
 14 15  2  0
 15 16  1  0
 16 17  2  0
 17 18  1  0
 18 19  2  0
 19 20  1  0
 20 21  1  0
 21 22  2  0
 22 23  1  0
 23 24  2  0
 24 25  1  0
 25 26  2  0
 26 27  1  0
 27 28  2  0
 28 29  1  0
 29 30  2  0
 30 31  1  0
 31 32  2  0
 32 33  1  0
 33 34  2  0
 34 35  1  0
 35 36  1  0
 36 37  2  0
 37 38  1  0
 38 39  2  0
 39 40  1  0
 40 41  2  0
 30 42  1  0
 42 43  2  0
 15 44  1  0
 44 45  2  0
  5 46  1  0
 46 47  1  0
 47 48  2  0
 47 49  1  0
 49  2  1  0
 11  6  1  0
 44 12  1  0
 20 16  1  0
 26 21  1  0
 42 27  1  0
 35 31  1  0
 41 36  1  0
M  END
>  <Title>  (18) 
idAASBgen10

$$$$

     RDKit          2D

 64 74  0  0  0  0  0  0  0  0999 V2000
  -10.1624    4.2767    0.0000 C   0  0  0  0  0  0  0  0  0  0  0  0
   -8.9488    3.3950    0.0000 C   0  0  0  0  0  0  0  0  0  0  0  0
   -9.1056    1.9033    0.0000 C   0  0  0  0  0  0  0  0  0  0  0  0
   -7.8921    1.0216    0.0000 C   0  0  0  0  0  0  0  0  0  0  0  0
   -6.5218    1.6317    0.0000 C   0  0  0  0  0  0  0  0  0  0  0  0
   -5.3083    0.7500    0.0000 C   0  0  0  0  0  0  0  0  0  0  0  0
   -5.3083   -0.7500    0.0000 N   0  0  0  0  0  0  0  0  0  0  0  0
   -3.8817   -1.2135    0.0000 N   0  0  0  0  0  0  0  0  0  0  0  0
   -3.0000    0.0000    0.0000 N   0  0  0  0  0  0  0  0  0  0  0  0
   -3.8817    1.2135    0.0000 N   0  0  0  0  0  0  0  0  0  0  0  0
   -3.4182    2.6401    0.0000 C   0  0  0  0  0  0  0  0  0  0  0  0
   -4.2998    3.8536    0.0000 C   0  0  0  0  0  0  0  0  0  0  0  0
   -3.4182    5.0672    0.0000 N   0  0  0  0  0  0  0  0  0  0  0  0
   -1.9916    4.6036    0.0000 N   0  0  0  0  0  0  0  0  0  0  0  0
   -1.9916    3.1036    0.0000 N   0  0  0  0  0  0  0  0  0  0  0  0
   -0.7780    2.2220    0.0000 C   0  0  0  0  0  0  0  0  0  0  0  0
   -0.9348    0.7302    0.0000 C   0  0  0  0  0  0  0  0  0  0  0  0
    0.2787   -0.1515    0.0000 C   0  0  0  0  0  0  0  0  0  0  0  0
    1.6490    0.4586    0.0000 C   0  0  0  0  0  0  0  0  0  0  0  0
    2.8625   -0.4231    0.0000 C   0  0  0  0  0  0  0  0  0  0  0  0
    4.2891    0.0404    0.0000 N   0  0  0  0  0  0  0  0  0  0  0  0
    5.1708   -1.1731    0.0000 N   0  0  0  0  0  0  0  0  0  0  0  0
    4.2891   -2.3866    0.0000 N   0  0  0  0  0  0  0  0  0  0  0  0
    2.8625   -1.9231    0.0000 N   0  0  0  0  0  0  0  0  0  0  0  0
    1.6490   -2.8048    0.0000 C   0  0  0  0  0  0  0  0  0  0  0  0
    0.2224   -2.3412    0.0000 N   0  0  0  0  0  0  0  0  0  0  0  0
   -0.6593   -3.5548    0.0000 N   0  0  0  0  0  0  0  0  0  0  0  0
    0.2224   -4.7683    0.0000 N   0  0  0  0  0  0  0  0  0  0  0  0
    1.6490   -4.3048    0.0000 N   0  0  0  0  0  0  0  0  0  0  0  0
    2.8625   -5.1864    0.0000 C   0  0  0  0  0  0  0  0  0  0  0  0
    4.2329   -4.5763    0.0000 C   0  0  0  0  0  0  0  0  0  0  0  0
    5.4464   -5.4580    0.0000 C   0  0  0  0  0  0  0  0  0  0  0  0
    5.2896   -6.9498    0.0000 C   0  0  0  0  0  0  0  0  0  0  0  0
    3.9193   -7.5599    0.0000 C   0  0  0  0  0  0  0  0  0  0  0  0
    2.7057   -6.6782    0.0000 C   0  0  0  0  0  0  0  0  0  0  0  0
    1.8058    1.9504    0.0000 C   0  0  0  0  0  0  0  0  0  0  0  0
    0.5923    2.8321    0.0000 C   0  0  0  0  0  0  0  0  0  0  0  0
    0.7491    4.3238    0.0000 C   0  0  0  0  0  0  0  0  0  0  0  0
   -0.3656    5.3275    0.0000 C   0  0  0  0  0  0  0  0  0  0  0  0
    0.2445    6.6979    0.0000 C   0  0  0  0  0  0  0  0  0  0  0  0
    1.7362    6.5411    0.0000 C   0  0  0  0  0  0  0  0  0  0  0  0
    2.7399    7.6558    0.0000 C   0  0  0  0  0  0  0  0  0  0  0  0
    4.2072    7.3439    0.0000 C   0  0  0  0  0  0  0  0  0  0  0  0
    5.2109    8.4586    0.0000 C   0  0  0  0  0  0  0  0  0  0  0  0
    4.7473    9.8852    0.0000 N   0  0  0  0  0  0  0  0  0  0  0  0
    3.2801   10.1971    0.0000 N   0  0  0  0  0  0  0  0  0  0  0  0
    2.2764    9.0824    0.0000 C   0  0  0  0  0  0  0  0  0  0  0  0
    0.8092    9.3942    0.0000 C   0  0  0  0  0  0  0  0  0  0  0  0
   -0.1945    8.2795    0.0000 C   0  0  0  0  0  0  0  0  0  0  0  0
   -1.6617    8.5914    0.0000 C   0  0  0  0  0  0  0  0  0  0  0  0
   -2.1253   10.0180    0.0000 C   0  0  0  0  0  0  0  0  0  0  0  0
   -1.1216   11.1327    0.0000 C   0  0  0  0  0  0  0  0  0  0  0  0
    0.3457   10.8208    0.0000 C   0  0  0  0  0  0  0  0  0  0  0  0
    1.3494   11.9355    0.0000 C   0  0  0  0  0  0  0  0  0  0  0  0
    0.8858   13.3621    0.0000 C   0  0  0  0  0  0  0  0  0  0  0  0
    1.8895   14.4768    0.0000 C   0  0  0  0  0  0  0  0  0  0  0  0
    3.3568   14.1650    0.0000 C   0  0  0  0  0  0  0  0  0  0  0  0
    3.8203   12.7384    0.0000 C   0  0  0  0  0  0  0  0  0  0  0  0
    2.8166   11.6237    0.0000 C   0  0  0  0  0  0  0  0  0  0  0  0
    2.0481    5.0738    0.0000 C   0  0  0  0  0  0  0  0  0  0  0  0
    3.4184    4.4637    0.0000 O   0  0  0  0  0  0  0  0  0  0  0  0
   -6.3650    3.1235    0.0000 N   0  0  0  0  0  0  0  0  0  0  0  0
   -7.5785    4.0051    0.0000 C   0  0  0  0  0  0  0  0  0  0  0  0
   -7.4217    5.4969    0.0000 O   0  0  0  0  0  0  0  0  0  0  0  0
  1  2  1  0
  2  3  2  0
  3  4  1  0
  4  5  2  0
  5  6  1  0
  6  7  2  0
  7  8  1  0
  8  9  2  0
  9 10  1  0
 10 11  1  0
 11 12  2  0
 12 13  1  0
 13 14  2  0
 14 15  1  0
 15 16  1  0
 16 17  2  0
 17 18  1  0
 18 19  2  0
 19 20  1  0
 20 21  2  0
 21 22  1  0
 22 23  2  0
 23 24  1  0
 24 25  1  0
 25 26  2  0
 26 27  1  0
 27 28  2  0
 28 29  1  0
 29 30  1  0
 30 31  2  0
 31 32  1  0
 32 33  2  0
 33 34  1  0
 34 35  2  0
 19 36  1  0
 36 37  2  0
 37 38  1  0
 38 39  2  0
 39 40  1  0
 40 41  2  0
 41 42  1  0
 42 43  2  0
 43 44  1  0
 44 45  2  0
 45 46  1  0
 46 47  2  0
 47 48  1  0
 48 49  2  0
 49 50  1  0
 50 51  2  0
 51 52  1  0
 52 53  2  0
 53 54  1  0
 54 55  2  0
 55 56  1  0
 56 57  2  0
 57 58  1  0
 58 59  2  0
 41 60  1  0
 60 61  2  0
  5 62  1  0
 62 63  1  0
 63 64  2  0
 63  2  1  0
 10  6  1  0
 15 11  1  0
 37 16  1  0
 60 38  1  0
 24 20  1  0
 29 25  1  0
 35 30  1  0
 47 42  1  0
 53 48  1  0
 59 54  1  0
M  END
>  <Title>  (19) 
idAAWPgen9

$$$$

     RDKit          2D

 40 45  0  0  0  0  0  0  0  0999 V2000
    3.0000    0.0000    0.0000 C   0  0  0  0  0  0  0  0  0  0  0  0
    1.5000    0.0000    0.0000 C   0  0  0  0  0  0  0  0  0  0  0  0
    0.7500   -1.2990    0.0000 C   0  0  0  0  0  0  0  0  0  0  0  0
   -0.7500   -1.2990    0.0000 C   0  0  0  0  0  0  0  0  0  0  0  0
   -1.5000    0.0000    0.0000 C   0  0  0  0  0  0  0  0  0  0  0  0
   -3.0000    0.0000    0.0000 C   0  0  0  0  0  0  0  0  0  0  0  0
   -3.7500   -1.2990    0.0000 O   0  0  0  0  0  0  0  0  0  0  0  0
   -3.7500    1.2990    0.0000 N   0  0  0  0  0  0  0  0  0  0  0  0
   -5.2500    1.2990    0.0000 C   0  0  0  0  0  0  0  0  0  0  0  0
   -6.1317    0.0855    0.0000 N   0  0  0  0  0  0  0  0  0  0  0  0
   -7.5583    0.5490    0.0000 N   0  0  0  0  0  0  0  0  0  0  0  0
   -7.5583    2.0490    0.0000 N   0  0  0  0  0  0  0  0  0  0  0  0
   -6.1317    2.5126    0.0000 N   0  0  0  0  0  0  0  0  0  0  0  0
   -5.6682    3.9391    0.0000 N   0  0  0  0  0  0  0  0  0  0  0  0
   -4.2009    4.2510    0.0000 N   0  0  0  0  0  0  0  0  0  0  0  0
   -3.7374    5.6776    0.0000 N   0  0  0  0  0  0  0  0  0  0  0  0
   -4.7411    6.7923    0.0000 N   0  0  0  0  0  0  0  0  0  0  0  0
   -6.2083    6.4805    0.0000 N   0  0  0  0  0  0  0  0  0  0  0  0
   -6.6718    5.0539    0.0000 N   0  0  0  0  0  0  0  0  0  0  0  0
   -8.1391    4.7420    0.0000 C   0  0  0  0  0  0  0  0  0  0  0  0
   -9.1428    5.8567    0.0000 C   0  0  0  0  0  0  0  0  0  0  0  0
  -10.6100    5.5448    0.0000 C   0  0  0  0  0  0  0  0  0  0  0  0
  -11.0735    4.1183    0.0000 C   0  0  0  0  0  0  0  0  0  0  0  0
  -12.5407    3.8064    0.0000 C   0  0  0  0  0  0  0  0  0  0  0  0
  -13.5444    4.9211    0.0000 C   0  0  0  0  0  0  0  0  0  0  0  0
  -15.0117    4.6092    0.0000 C   0  0  0  0  0  0  0  0  0  0  0  0
  -15.4752    3.1827    0.0000 C   0  0  0  0  0  0  0  0  0  0  0  0
  -14.4715    2.0679    0.0000 C   0  0  0  0  0  0  0  0  0  0  0  0
  -13.0043    2.3798    0.0000 C   0  0  0  0  0  0  0  0  0  0  0  0
  -12.0006    1.2651    0.0000 C   0  0  0  0  0  0  0  0  0  0  0  0
  -12.4641   -0.1615    0.0000 C   0  0  0  0  0  0  0  0  0  0  0  0
  -11.4604   -1.2762    0.0000 C   0  0  0  0  0  0  0  0  0  0  0  0
   -9.9932   -0.9643    0.0000 C   0  0  0  0  0  0  0  0  0  0  0  0
   -9.5296    0.4622    0.0000 C   0  0  0  0  0  0  0  0  0  0  0  0
  -10.5333    1.5770    0.0000 C   0  0  0  0  0  0  0  0  0  0  0  0
  -10.0698    3.0035    0.0000 C   0  0  0  0  0  0  0  0  0  0  0  0
   -8.6026    3.3154    0.0000 C   0  0  0  0  0  0  0  0  0  0  0  0
   -0.7500    1.2990    0.0000 C   0  0  0  0  0  0  0  0  0  0  0  0
   -1.5000    2.5981    0.0000 O   0  0  0  0  0  0  0  0  0  0  0  0
    0.7500    1.2990    0.0000 N   0  0  0  0  0  0  0  0  0  0  0  0
  1  2  1  0
  2  3  2  0
  3  4  1  0
  4  5  2  0
  5  6  1  0
  6  7  2  0
  6  8  1  0
  8  9  1  0
  9 10  2  0
 10 11  1  0
 11 12  2  0
 12 13  1  0
 13 14  1  0
 14 15  1  0
 15 16  2  0
 16 17  1  0
 17 18  2  0
 18 19  1  0
 19 20  1  0
 20 21  2  0
 21 22  1  0
 22 23  2  0
 23 24  1  0
 24 25  2  0
 25 26  1  0
 26 27  2  0
 27 28  1  0
 28 29  2  0
 29 30  1  0
 30 31  2  0
 31 32  1  0
 32 33  2  0
 33 34  1  0
 34 35  2  0
 23 36  1  0
 36 37  2  0
  5 38  1  0
 38 39  2  0
 38 40  1  0
 40  2  1  0
 13  9  1  0
 19 14  1  0
 37 20  1  0
 29 24  1  0
 35 30  1  0
M  END
>  <Title>  (20) 
idAACVgen7

$$$$

     RDKit          2D

 54 62  0  0  0  0  0  0  0  0999 V2000
    3.2286   -0.0000    0.0000 C   0  0  0  0  0  0  0  0  0  0  0  0
    1.7286    0.0000    0.0000 C   0  0  0  0  0  0  0  0  0  0  0  0
    1.0777    1.3515    0.0000 C   0  0  0  0  0  0  0  0  0  0  0  0
   -0.3846    1.6852    0.0000 C   0  0  0  0  0  0  0  0  0  0  0  0
   -1.5574    0.7500    0.0000 C   0  0  0  0  0  0  0  0  0  0  0  0
   -2.9088    1.4008    0.0000 C   0  0  0  0  0  0  0  0  0  0  0  0
   -4.2297    0.6900    0.0000 N   0  0  0  0  0  0  0  0  0  0  0  0
   -5.3139    1.7266    0.0000 N   0  0  0  0  0  0  0  0  0  0  0  0
   -4.6631    3.0781    0.0000 N   0  0  0  0  0  0  0  0  0  0  0  0
   -3.1767    2.8767    0.0000 N   0  0  0  0  0  0  0  0  0  0  0  0
   -2.1401    3.9609    0.0000 C   0  0  0  0  0  0  0  0  0  0  0  0
   -0.6829    3.6053    0.0000 C   0  0  0  0  0  0  0  0  0  0  0  0
    0.3537    4.6895    0.0000 C   0  0  0  0  0  0  0  0  0  0  0  0
   -0.0669    6.1293    0.0000 C   0  0  0  0  0  0  0  0  0  0  0  0
    0.9697    7.2135    0.0000 C   0  0  0  0  0  0  0  0  0  0  0  0
    0.7019    8.6894    0.0000 N   0  0  0  0  0  0  0  0  0  0  0  0
    2.0228    9.4002    0.0000 N   0  0  0  0  0  0  0  0  0  0  0  0
    3.1069    8.3636    0.0000 N   0  0  0  0  0  0  0  0  0  0  0  0
    2.4561    7.0121    0.0000 N   0  0  0  0  0  0  0  0  0  0  0  0
    3.1669    5.6912    0.0000 C   0  0  0  0  0  0  0  0  0  0  0  0
    2.3784    4.4152    0.0000 C   0  0  0  0  0  0  0  0  0  0  0  0
    3.0892    3.0943    0.0000 C   0  0  0  0  0  0  0  0  0  0  0  0
    4.5885    3.0495    0.0000 C   0  0  0  0  0  0  0  0  0  0  0  0
    5.3771    4.3255    0.0000 C   0  0  0  0  0  0  0  0  0  0  0  0
    4.6663    5.6464    0.0000 C   0  0  0  0  0  0  0  0  0  0  0  0
   -1.5241    6.4849    0.0000 C   0  0  0  0  0  0  0  0  0  0  0  0
   -2.5607    5.4007    0.0000 C   0  0  0  0  0  0  0  0  0  0  0  0
   -4.0180    5.7563    0.0000 C   0  0  0  0  0  0  0  0  0  0  0  0
   -5.1622    4.7864    0.0000 C   0  0  0  0  0  0  0  0  0  0  0  0
   -6.4382    5.5750    0.0000 C   0  0  0  0  0  0  0  0  0  0  0  0
   -6.0826    7.0322    0.0000 C   0  0  0  0  0  0  0  0  0  0  0  0
   -7.0525    8.1765    0.0000 C   0  0  0  0  0  0  0  0  0  0  0  0
   -8.5483    8.0644    0.0000 N   0  0  0  0  0  0  0  0  0  0  0  0
   -9.1171    9.4523    0.0000 N   0  0  0  0  0  0  0  0  0  0  0  0
   -7.9729   10.4222    0.0000 N   0  0  0  0  0  0  0  0  0  0  0  0
   -6.6969    9.6337    0.0000 N   0  0  0  0  0  0  0  0  0  0  0  0
   -5.3089   10.2025    0.0000 C   0  0  0  0  0  0  0  0  0  0  0  0
   -4.1223    9.2849    0.0000 C   0  0  0  0  0  0  0  0  0  0  0  0
   -2.7344    9.8538    0.0000 C   0  0  0  0  0  0  0  0  0  0  0  0
   -2.5330   11.3402    0.0000 C   0  0  0  0  0  0  0  0  0  0  0  0
   -3.7196   12.2578    0.0000 C   0  0  0  0  0  0  0  0  0  0  0  0
   -5.1076   11.6889    0.0000 C   0  0  0  0  0  0  0  0  0  0  0  0
   -6.2942   12.6065    0.0000 C   0  0  0  0  0  0  0  0  0  0  0  0
   -6.0928   14.0930    0.0000 C   0  0  0  0  0  0  0  0  0  0  0  0
   -7.2794   15.0105    0.0000 C   0  0  0  0  0  0  0  0  0  0  0  0
   -8.6674   14.4417    0.0000 C   0  0  0  0  0  0  0  0  0  0  0  0
   -8.8687   12.9553    0.0000 C   0  0  0  0  0  0  0  0  0  0  0  0
   -7.6821   12.0377    0.0000 C   0  0  0  0  0  0  0  0  0  0  0  0
   -4.5868    7.1443    0.0000 C   0  0  0  0  0  0  0  0  0  0  0  0
   -3.7983    8.4203    0.0000 O   0  0  0  0  0  0  0  0  0  0  0  0
   -1.5574   -0.7500    0.0000 N   0  0  0  0  0  0  0  0  0  0  0  0
   -0.3846   -1.6852    0.0000 C   0  0  0  0  0  0  0  0  0  0  0  0
   -0.7184   -3.1476    0.0000 O   0  0  0  0  0  0  0  0  0  0  0  0
    1.0777   -1.3515    0.0000 C   0  0  0  0  0  0  0  0  0  0  0  0
  1  2  1  0
  2  3  2  0
  3  4  1  0
  4  5  2  0
  5  6  1  0
  6  7  2  0
  7  8  1  0
  8  9  2  0
  9 10  1  0
 10 11  1  0
 11 12  2  0
 12 13  1  0
 13 14  2  0
 14 15  1  0
 15 16  2  0
 16 17  1  0
 17 18  2  0
 18 19  1  0
 19 20  1  0
 20 21  2  0
 21 22  1  0
 22 23  2  0
 23 24  1  0
 24 25  2  0
 14 26  1  0
 26 27  2  0
 27 28  1  0
 28 29  2  0
 29 30  1  0
 30 31  2  0
 31 32  1  0
 32 33  2  0
 33 34  1  0
 34 35  2  0
 35 36  1  0
 36 37  1  0
 37 38  2  0
 38 39  1  0
 39 40  2  0
 40 41  1  0
 41 42  2  0
 42 43  1  0
 43 44  2  0
 44 45  1  0
 45 46  2  0
 46 47  1  0
 47 48  2  0
 31 49  1  0
 49 50  2  0
  5 51  1  0
 51 52  1  0
 52 53  2  0
 52 54  1  0
 54  2  1  0
 10  6  1  0
 27 11  1  0
 49 28  1  0
 19 15  1  0
 25 20  1  0
 36 32  1  0
 42 37  1  0
 48 43  1  0
M  END
>  <Title>  (21) 
idABGHgen8

$$$$

     RDKit          2D

 58 65  0  0  0  0  0  0  0  0999 V2000
    3.0000    0.0000    0.0000 C   0  0  0  0  0  0  0  0  0  0  0  0
    1.5000    0.0000    0.0000 C   0  0  0  0  0  0  0  0  0  0  0  0
    0.7500   -1.2990    0.0000 C   0  0  0  0  0  0  0  0  0  0  0  0
   -0.7500   -1.2990    0.0000 C   0  0  0  0  0  0  0  0  0  0  0  0
   -1.5000    0.0000    0.0000 C   0  0  0  0  0  0  0  0  0  0  0  0
   -3.0000    0.0000    0.0000 C   0  0  0  0  0  0  0  0  0  0  0  0
   -3.7500   -1.2990    0.0000 O   0  0  0  0  0  0  0  0  0  0  0  0
   -3.7500    1.2990    0.0000 N   0  0  0  0  0  0  0  0  0  0  0  0
   -5.2500    1.2990    0.0000 C   0  0  0  0  0  0  0  0  0  0  0  0
   -6.1317    0.0855    0.0000 N   0  0  0  0  0  0  0  0  0  0  0  0
   -7.5583    0.5490    0.0000 N   0  0  0  0  0  0  0  0  0  0  0  0
   -7.5583    2.0490    0.0000 N   0  0  0  0  0  0  0  0  0  0  0  0
   -6.1317    2.5126    0.0000 N   0  0  0  0  0  0  0  0  0  0  0  0
   -5.6682    3.9391    0.0000 C   0  0  0  0  0  0  0  0  0  0  0  0
   -4.2009    4.2510    0.0000 C   0  0  0  0  0  0  0  0  0  0  0  0
   -3.7374    5.6776    0.0000 C   0  0  0  0  0  0  0  0  0  0  0  0
   -4.7411    6.7923    0.0000 C   0  0  0  0  0  0  0  0  0  0  0  0
   -4.2776    8.2189    0.0000 C   0  0  0  0  0  0  0  0  0  0  0  0
   -5.2813    9.3336    0.0000 O   0  0  0  0  0  0  0  0  0  0  0  0
   -2.8104    8.5308    0.0000 N   0  0  0  0  0  0  0  0  0  0  0  0
   -2.3468    9.9574    0.0000 C   0  0  0  0  0  0  0  0  0  0  0  0
   -3.3505   11.0721    0.0000 O   0  0  0  0  0  0  0  0  0  0  0  0
   -0.8796   10.2692    0.0000 N   0  0  0  0  0  0  0  0  0  0  0  0
   -0.4161   11.6958    0.0000 C   0  0  0  0  0  0  0  0  0  0  0  0
   -1.2978   12.9093    0.0000 N   0  0  0  0  0  0  0  0  0  0  0  0
   -0.4161   14.1229    0.0000 N   0  0  0  0  0  0  0  0  0  0  0  0
    1.0105   13.6593    0.0000 N   0  0  0  0  0  0  0  0  0  0  0  0
    1.0105   12.1593    0.0000 N   0  0  0  0  0  0  0  0  0  0  0  0
    2.2240   11.2777    0.0000 C   0  0  0  0  0  0  0  0  0  0  0  0
    2.0672    9.7859    0.0000 C   0  0  0  0  0  0  0  0  0  0  0  0
    3.2808    8.9042    0.0000 C   0  0  0  0  0  0  0  0  0  0  0  0
    4.6511    9.5143    0.0000 C   0  0  0  0  0  0  0  0  0  0  0  0
    4.8079   11.0061    0.0000 C   0  0  0  0  0  0  0  0  0  0  0  0
    3.5943   11.8878    0.0000 C   0  0  0  0  0  0  0  0  0  0  0  0
   -6.2083    6.4805    0.0000 C   0  0  0  0  0  0  0  0  0  0  0  0
   -6.6718    5.0539    0.0000 C   0  0  0  0  0  0  0  0  0  0  0  0
   -8.1391    4.7420    0.0000 C   0  0  0  0  0  0  0  0  0  0  0  0
   -9.1428    5.8567    0.0000 C   0  0  0  0  0  0  0  0  0  0  0  0
  -10.6100    5.5448    0.0000 C   0  0  0  0  0  0  0  0  0  0  0  0
  -11.0735    4.1183    0.0000 C   0  0  0  0  0  0  0  0  0  0  0  0
  -12.5407    3.8064    0.0000 C   0  0  0  0  0  0  0  0  0  0  0  0
  -13.0043    2.3798    0.0000 O   0  0  0  0  0  0  0  0  0  0  0  0
  -13.5444    4.9211    0.0000 N   0  0  0  0  0  0  0  0  0  0  0  0
  -15.0117    4.6092    0.0000 C   0  0  0  0  0  0  0  0  0  0  0  0
  -15.6218    3.2389    0.0000 N   0  0  0  0  0  0  0  0  0  0  0  0
  -17.1135    3.3957    0.0000 N   0  0  0  0  0  0  0  0  0  0  0  0
  -17.4254    4.8629    0.0000 N   0  0  0  0  0  0  0  0  0  0  0  0
  -16.1264    5.6129    0.0000 N   0  0  0  0  0  0  0  0  0  0  0  0
  -15.9696    7.1047    0.0000 C   0  0  0  0  0  0  0  0  0  0  0  0
  -14.5993    7.7148    0.0000 C   0  0  0  0  0  0  0  0  0  0  0  0
  -14.4425    9.2066    0.0000 C   0  0  0  0  0  0  0  0  0  0  0  0
  -15.6560   10.0883    0.0000 C   0  0  0  0  0  0  0  0  0  0  0  0
  -17.0263    9.4782    0.0000 C   0  0  0  0  0  0  0  0  0  0  0  0
  -17.1831    7.9864    0.0000 C   0  0  0  0  0  0  0  0  0  0  0  0
  -10.0698    3.0035    0.0000 C   0  0  0  0  0  0  0  0  0  0  0  0
   -8.6026    3.3154    0.0000 C   0  0  0  0  0  0  0  0  0  0  0  0
   -0.7500    1.2990    0.0000 C   0  0  0  0  0  0  0  0  0  0  0  0
    0.7500    1.2990    0.0000 C   0  0  0  0  0  0  0  0  0  0  0  0
  1  2  1  0
  2  3  2  0
  3  4  1  0
  4  5  2  0
  5  6  1  0
  6  7  2  0
  6  8  1  0
  8  9  1  0
  9 10  2  0
 10 11  1  0
 11 12  2  0
 12 13  1  0
 13 14  1  0
 14 15  2  0
 15 16  1  0
 16 17  2  0
 17 18  1  0
 18 19  2  0
 18 20  1  0
 20 21  1  0
 21 22  2  0
 21 23  1  0
 23 24  1  0
 24 25  2  0
 25 26  1  0
 26 27  2  0
 27 28  1  0
 28 29  1  0
 29 30  2  0
 30 31  1  0
 31 32  2  0
 32 33  1  0
 33 34  2  0
 17 35  1  0
 35 36  2  0
 36 37  1  0
 37 38  2  0
 38 39  1  0
 39 40  2  0
 40 41  1  0
 41 42  2  0
 41 43  1  0
 43 44  1  0
 44 45  2  0
 45 46  1  0
 46 47  2  0
 47 48  1  0
 48 49  1  0
 49 50  2  0
 50 51  1  0
 51 52  2  0
 52 53  1  0
 53 54  2  0
 40 55  1  0
 55 56  2  0
  5 57  1  0
 57 58  2  0
 58  2  1  0
 13  9  1  0
 36 14  1  0
 56 37  1  0
 28 24  1  0
 34 29  1  0
 48 44  1  0
 54 49  1  0
M  END
>  <Title>  (22) 
idABXWgen8

$$$$

     RDKit          2D

 61 69  0  0  0  0  0  0  0  0999 V2000
    3.2286   -0.0000    0.0000 C   0  0  0  0  0  0  0  0  0  0  0  0
    1.7286    0.0000    0.0000 C   0  0  0  0  0  0  0  0  0  0  0  0
    1.0777    1.3515    0.0000 C   0  0  0  0  0  0  0  0  0  0  0  0
   -0.3846    1.6852    0.0000 C   0  0  0  0  0  0  0  0  0  0  0  0
   -1.5574    0.7500    0.0000 C   0  0  0  0  0  0  0  0  0  0  0  0
   -2.9088    1.4008    0.0000 C   0  0  0  0  0  0  0  0  0  0  0  0
   -4.2297    0.6900    0.0000 N   0  0  0  0  0  0  0  0  0  0  0  0
   -5.3139    1.7266    0.0000 N   0  0  0  0  0  0  0  0  0  0  0  0
   -4.6631    3.0781    0.0000 N   0  0  0  0  0  0  0  0  0  0  0  0
   -3.1767    2.8767    0.0000 N   0  0  0  0  0  0  0  0  0  0  0  0
   -2.1401    3.9609    0.0000 C   0  0  0  0  0  0  0  0  0  0  0  0
   -0.6829    3.6053    0.0000 C   0  0  0  0  0  0  0  0  0  0  0  0
    0.3537    4.6895    0.0000 C   0  0  0  0  0  0  0  0  0  0  0  0
   -0.0669    6.1293    0.0000 C   0  0  0  0  0  0  0  0  0  0  0  0
    0.9697    7.2135    0.0000 C   0  0  0  0  0  0  0  0  0  0  0  0
    0.7019    8.6894    0.0000 N   0  0  0  0  0  0  0  0  0  0  0  0
    2.0228    9.4002    0.0000 N   0  0  0  0  0  0  0  0  0  0  0  0
    3.1069    8.3636    0.0000 N   0  0  0  0  0  0  0  0  0  0  0  0
    2.4561    7.0121    0.0000 N   0  0  0  0  0  0  0  0  0  0  0  0
    3.1669    5.6912    0.0000 C   0  0  0  0  0  0  0  0  0  0  0  0
    2.3784    4.4152    0.0000 C   0  0  0  0  0  0  0  0  0  0  0  0
    3.0892    3.0943    0.0000 C   0  0  0  0  0  0  0  0  0  0  0  0
    4.5885    3.0495    0.0000 C   0  0  0  0  0  0  0  0  0  0  0  0
    5.3771    4.3255    0.0000 C   0  0  0  0  0  0  0  0  0  0  0  0
    4.6663    5.6464    0.0000 C   0  0  0  0  0  0  0  0  0  0  0  0
    5.4548    6.9224    0.0000 C   0  0  0  0  0  0  0  0  0  0  0  0
    6.9541    6.8775    0.0000 C   0  0  0  0  0  0  0  0  0  0  0  0
    7.7426    8.1535    0.0000 C   0  0  0  0  0  0  0  0  0  0  0  0
    7.0318    9.4744    0.0000 C   0  0  0  0  0  0  0  0  0  0  0  0
    7.8204   10.7505    0.0000 C   0  0  0  0  0  0  0  0  0  0  0  0
    7.1096   12.0713    0.0000 O   0  0  0  0  0  0  0  0  0  0  0  0
    9.3197   10.7056    0.0000 N   0  0  0  0  0  0  0  0  0  0  0  0
   10.1082   11.9816    0.0000 O   0  0  0  0  0  0  0  0  0  0  0  0
    5.5325    9.5193    0.0000 C   0  0  0  0  0  0  0  0  0  0  0  0
    4.7440    8.2433    0.0000 C   0  0  0  0  0  0  0  0  0  0  0  0
   -1.5241    6.4849    0.0000 C   0  0  0  0  0  0  0  0  0  0  0  0
   -2.5607    5.4007    0.0000 C   0  0  0  0  0  0  0  0  0  0  0  0
   -4.0180    5.7563    0.0000 C   0  0  0  0  0  0  0  0  0  0  0  0
   -5.1622    4.7864    0.0000 C   0  0  0  0  0  0  0  0  0  0  0  0
   -6.4382    5.5750    0.0000 C   0  0  0  0  0  0  0  0  0  0  0  0
   -6.0826    7.0322    0.0000 C   0  0  0  0  0  0  0  0  0  0  0  0
   -7.0525    8.1765    0.0000 C   0  0  0  0  0  0  0  0  0  0  0  0
   -8.5284    7.9086    0.0000 O   0  0  0  0  0  0  0  0  0  0  0  0
   -6.5465    9.5885    0.0000 N   0  0  0  0  0  0  0  0  0  0  0  0
   -7.5164   10.7328    0.0000 C   0  0  0  0  0  0  0  0  0  0  0  0
   -9.0122   10.6207    0.0000 N   0  0  0  0  0  0  0  0  0  0  0  0
   -9.5811   12.0086    0.0000 N   0  0  0  0  0  0  0  0  0  0  0  0
   -8.4368   12.9785    0.0000 N   0  0  0  0  0  0  0  0  0  0  0  0
   -7.1608   12.1900    0.0000 N   0  0  0  0  0  0  0  0  0  0  0  0
   -5.7728   12.7588    0.0000 C   0  0  0  0  0  0  0  0  0  0  0  0
   -4.5862   11.8413    0.0000 C   0  0  0  0  0  0  0  0  0  0  0  0
   -3.1983   12.4101    0.0000 C   0  0  0  0  0  0  0  0  0  0  0  0
   -2.9969   13.8965    0.0000 C   0  0  0  0  0  0  0  0  0  0  0  0
   -4.1835   14.8141    0.0000 C   0  0  0  0  0  0  0  0  0  0  0  0
   -5.5715   14.2453    0.0000 C   0  0  0  0  0  0  0  0  0  0  0  0
   -4.5868    7.1443    0.0000 C   0  0  0  0  0  0  0  0  0  0  0  0
   -3.7983    8.4203    0.0000 O   0  0  0  0  0  0  0  0  0  0  0  0
   -1.5574   -0.7500    0.0000 N   0  0  0  0  0  0  0  0  0  0  0  0
   -0.3846   -1.6852    0.0000 C   0  0  0  0  0  0  0  0  0  0  0  0
   -0.7184   -3.1476    0.0000 O   0  0  0  0  0  0  0  0  0  0  0  0
    1.0777   -1.3515    0.0000 N   0  0  0  0  0  0  0  0  0  0  0  0
  1  2  1  0
  2  3  2  0
  3  4  1  0
  4  5  2  0
  5  6  1  0
  6  7  2  0
  7  8  1  0
  8  9  2  0
  9 10  1  0
 10 11  1  0
 11 12  2  0
 12 13  1  0
 13 14  2  0
 14 15  1  0
 15 16  2  0
 16 17  1  0
 17 18  2  0
 18 19  1  0
 19 20  1  0
 20 21  2  0
 21 22  1  0
 22 23  2  0
 23 24  1  0
 24 25  2  0
 25 26  1  0
 26 27  2  0
 27 28  1  0
 28 29  2  0
 29 30  1  0
 30 31  2  0
 30 32  1  0
 32 33  1  0
 29 34  1  0
 34 35  1  0
 14 36  1  0
 36 37  2  0
 37 38  1  0
 38 39  2  0
 39 40  1  0
 40 41  2  0
 41 42  1  0
 42 43  2  0
 42 44  1  0
 44 45  1  0
 45 46  2  0
 46 47  1  0
 47 48  2  0
 48 49  1  0
 49 50  1  0
 50 51  2  0
 51 52  1  0
 52 53  2  0
 53 54  1  0
 54 55  2  0
 41 56  1  0
 56 57  2  0
  5 58  1  0
 58 59  1  0
 59 60  2  0
 59 61  1  0
 61  2  1  0
 10  6  1  0
 37 11  1  0
 56 38  1  0
 19 15  1  0
 25 20  1  0
 35 26  1  0
 49 45  1  0
 55 50  1  0
M  END
>  <Title>  (23) 
idABQNgen8

$$$$

     RDKit          2D

 41 46  0  0  0  0  0  0  0  0999 V2000
    9.1405   -3.7127    0.0000 C   0  0  0  0  0  0  0  0  0  0  0  0
    8.3142   -2.4608    0.0000 C   0  0  0  0  0  0  0  0  0  0  0  0
    8.9851   -1.1193    0.0000 C   0  0  0  0  0  0  0  0  0  0  0  0
    8.1588    0.1326    0.0000 C   0  0  0  0  0  0  0  0  0  0  0  0
    6.6615    0.0429    0.0000 C   0  0  0  0  0  0  0  0  0  0  0  0
    5.8351    1.2947    0.0000 C   0  0  0  0  0  0  0  0  0  0  0  0
    6.5061    2.6363    0.0000 O   0  0  0  0  0  0  0  0  0  0  0  0
    4.3378    1.2050    0.0000 N   0  0  0  0  0  0  0  0  0  0  0  0
    3.5115    2.4569    0.0000 C   0  0  0  0  0  0  0  0  0  0  0  0
    4.0385    3.8613    0.0000 N   0  0  0  0  0  0  0  0  0  0  0  0
    2.8658    4.7965    0.0000 N   0  0  0  0  0  0  0  0  0  0  0  0
    1.6139    3.9701    0.0000 N   0  0  0  0  0  0  0  0  0  0  0  0
    2.0130    2.5242    0.0000 N   0  0  0  0  0  0  0  0  0  0  0  0
    1.0777    1.3515    0.0000 C   0  0  0  0  0  0  0  0  0  0  0  0
    1.7286    0.0000    0.0000 C   0  0  0  0  0  0  0  0  0  0  0  0
    1.0777   -1.3515    0.0000 C   0  0  0  0  0  0  0  0  0  0  0  0
   -0.3846   -1.6852    0.0000 N   0  0  0  0  0  0  0  0  0  0  0  0
   -1.5574   -0.7500    0.0000 N   0  0  0  0  0  0  0  0  0  0  0  0
   -1.5574    0.7500    0.0000 N   0  0  0  0  0  0  0  0  0  0  0  0
   -0.3846    1.6852    0.0000 N   0  0  0  0  0  0  0  0  0  0  0  0
   -0.7184    3.1476    0.0000 C   0  0  0  0  0  0  0  0  0  0  0  0
   -2.1518    3.5898    0.0000 C   0  0  0  0  0  0  0  0  0  0  0  0
   -2.4856    5.0522    0.0000 C   0  0  0  0  0  0  0  0  0  0  0  0
   -1.3860    6.0724    0.0000 C   0  0  0  0  0  0  0  0  0  0  0  0
   -1.7198    7.5348    0.0000 C   0  0  0  0  0  0  0  0  0  0  0  0
   -3.1531    7.9769    0.0000 C   0  0  0  0  0  0  0  0  0  0  0  0
   -3.4869    9.4393    0.0000 C   0  0  0  0  0  0  0  0  0  0  0  0
   -2.3873   10.4596    0.0000 C   0  0  0  0  0  0  0  0  0  0  0  0
   -0.9540   10.0175    0.0000 C   0  0  0  0  0  0  0  0  0  0  0  0
   -0.6202    8.5551    0.0000 C   0  0  0  0  0  0  0  0  0  0  0  0
    0.8132    8.1129    0.0000 C   0  0  0  0  0  0  0  0  0  0  0  0
    1.9127    9.1332    0.0000 C   0  0  0  0  0  0  0  0  0  0  0  0
    3.3461    8.6911    0.0000 C   0  0  0  0  0  0  0  0  0  0  0  0
    3.6799    7.2287    0.0000 C   0  0  0  0  0  0  0  0  0  0  0  0
    2.5803    6.2084    0.0000 C   0  0  0  0  0  0  0  0  0  0  0  0
    1.1469    6.6505    0.0000 C   0  0  0  0  0  0  0  0  0  0  0  0
    0.0474    5.6303    0.0000 C   0  0  0  0  0  0  0  0  0  0  0  0
    0.3812    4.1679    0.0000 C   0  0  0  0  0  0  0  0  0  0  0  0
    5.9905   -1.2987    0.0000 C   0  0  0  0  0  0  0  0  0  0  0  0
    4.4932   -1.3884    0.0000 O   0  0  0  0  0  0  0  0  0  0  0  0
    6.8169   -2.5505    0.0000 N   0  0  0  0  0  0  0  0  0  0  0  0
  1  2  1  0
  2  3  2  0
  3  4  1  0
  4  5  2  0
  5  6  1  0
  6  7  2  0
  6  8  1  0
  8  9  1  0
  9 10  2  0
 10 11  1  0
 11 12  2  0
 12 13  1  0
 13 14  1  0
 14 15  2  0
 15 16  1  0
 16 17  2  0
 17 18  1  0
 18 19  2  0
 19 20  1  0
 20 21  1  0
 21 22  2  0
 22 23  1  0
 23 24  2  0
 24 25  1  0
 25 26  2  0
 26 27  1  0
 27 28  2  0
 28 29  1  0
 29 30  2  0
 30 31  1  0
 31 32  2  0
 32 33  1  0
 33 34  2  0
 34 35  1  0
 35 36  2  0
 24 37  1  0
 37 38  2  0
  5 39  1  0
 39 40  2  0
 39 41  1  0
 41  2  1  0
 13  9  1  0
 20 14  1  0
 38 21  1  0
 30 25  1  0
 36 31  1  0
M  END
>  <Title>  (24) 
idABBOgen7

$$$$

     RDKit          2D

 48 54  0  0  0  0  0  0  0  0999 V2000
    3.0000   -0.0000    0.0000 C   0  0  0  0  0  0  0  0  0  0  0  0
    1.5000   -0.0000    0.0000 C   0  0  0  0  0  0  0  0  0  0  0  0
    0.7500   -1.2990    0.0000 C   0  0  0  0  0  0  0  0  0  0  0  0
   -0.7500   -1.2990    0.0000 C   0  0  0  0  0  0  0  0  0  0  0  0
   -1.5000    0.0000    0.0000 C   0  0  0  0  0  0  0  0  0  0  0  0
   -3.0000    0.0000    0.0000 C   0  0  0  0  0  0  0  0  0  0  0  0
   -3.7500   -1.2990    0.0000 O   0  0  0  0  0  0  0  0  0  0  0  0
   -3.7500    1.2990    0.0000 N   0  0  0  0  0  0  0  0  0  0  0  0
   -5.2500    1.2990    0.0000 C   0  0  0  0  0  0  0  0  0  0  0  0
   -6.1317    0.0855    0.0000 N   0  0  0  0  0  0  0  0  0  0  0  0
   -7.5583    0.5490    0.0000 N   0  0  0  0  0  0  0  0  0  0  0  0
   -7.5583    2.0490    0.0000 N   0  0  0  0  0  0  0  0  0  0  0  0
   -6.1317    2.5126    0.0000 N   0  0  0  0  0  0  0  0  0  0  0  0
   -5.6682    3.9391    0.0000 C   0  0  0  0  0  0  0  0  0  0  0  0
   -6.5498    5.1527    0.0000 C   0  0  0  0  0  0  0  0  0  0  0  0
   -5.6682    6.3662    0.0000 C   0  0  0  0  0  0  0  0  0  0  0  0
   -4.2416    5.9027    0.0000 C   0  0  0  0  0  0  0  0  0  0  0  0
   -3.0280    6.7844    0.0000 C   0  0  0  0  0  0  0  0  0  0  0  0
   -3.5411    8.1939    0.0000 O   0  0  0  0  0  0  0  0  0  0  0  0
   -1.6577    6.1742    0.0000 N   0  0  0  0  0  0  0  0  0  0  0  0
   -0.4442    7.0559    0.0000 C   0  0  0  0  0  0  0  0  0  0  0  0
    0.9824    6.5924    0.0000 N   0  0  0  0  0  0  0  0  0  0  0  0
    1.8641    7.8059    0.0000 N   0  0  0  0  0  0  0  0  0  0  0  0
    0.9824    9.0195    0.0000 N   0  0  0  0  0  0  0  0  0  0  0  0
   -0.4442    8.5559    0.0000 N   0  0  0  0  0  0  0  0  0  0  0  0
   -1.6577    9.4376    0.0000 C   0  0  0  0  0  0  0  0  0  0  0  0
   -3.0280    8.8275    0.0000 C   0  0  0  0  0  0  0  0  0  0  0  0
   -4.2416    9.7092    0.0000 C   0  0  0  0  0  0  0  0  0  0  0  0
   -4.0848   11.2010    0.0000 C   0  0  0  0  0  0  0  0  0  0  0  0
   -5.2983   12.0826    0.0000 C   0  0  0  0  0  0  0  0  0  0  0  0
   -6.6686   11.4725    0.0000 C   0  0  0  0  0  0  0  0  0  0  0  0
   -7.8821   12.3542    0.0000 C   0  0  0  0  0  0  0  0  0  0  0  0
   -7.7254   13.8460    0.0000 C   0  0  0  0  0  0  0  0  0  0  0  0
   -6.3550   14.4561    0.0000 C   0  0  0  0  0  0  0  0  0  0  0  0
   -5.1415   13.5744    0.0000 C   0  0  0  0  0  0  0  0  0  0  0  0
   -2.7145   11.8111    0.0000 C   0  0  0  0  0  0  0  0  0  0  0  0
   -1.5009   10.9294    0.0000 C   0  0  0  0  0  0  0  0  0  0  0  0
   -0.1306   11.5395    0.0000 C   0  0  0  0  0  0  0  0  0  0  0  0
    0.0262   13.0313    0.0000 C   0  0  0  0  0  0  0  0  0  0  0  0
    1.3965   13.6414    0.0000 C   0  0  0  0  0  0  0  0  0  0  0  0
    2.6100   12.7597    0.0000 C   0  0  0  0  0  0  0  0  0  0  0  0
    2.4532   11.2679    0.0000 C   0  0  0  0  0  0  0  0  0  0  0  0
    1.0829   10.6578    0.0000 C   0  0  0  0  0  0  0  0  0  0  0  0
   -4.2416    4.4027    0.0000 C   0  0  0  0  0  0  0  0  0  0  0  0
   -3.0280    3.5210    0.0000 O   0  0  0  0  0  0  0  0  0  0  0  0
   -0.7500    1.2990    0.0000 C   0  0  0  0  0  0  0  0  0  0  0  0
   -1.5000    2.5981    0.0000 O   0  0  0  0  0  0  0  0  0  0  0  0
    0.7500    1.2990    0.0000 N   0  0  0  0  0  0  0  0  0  0  0  0
  1  2  1  0
  2  3  2  0
  3  4  1  0
  4  5  2  0
  5  6  1  0
  6  7  2  0
  6  8  1  0
  8  9  1  0
  9 10  2  0
 10 11  1  0
 11 12  2  0
 12 13  1  0
 13 14  1  0
 14 15  2  0
 15 16  1  0
 16 17  2  0
 17 18  1  0
 18 19  2  0
 18 20  1  0
 20 21  1  0
 21 22  2  0
 22 23  1  0
 23 24  2  0
 24 25  1  0
 25 26  1  0
 26 27  2  0
 27 28  1  0
 28 29  2  0
 29 30  1  0
 30 31  2  0
 31 32  1  0
 32 33  2  0
 33 34  1  0
 34 35  2  0
 29 36  1  0
 36 37  2  0
 37 38  1  0
 38 39  2  0
 39 40  1  0
 40 41  2  0
 41 42  1  0
 42 43  2  0
 17 44  1  0
 44 45  2  0
  5 46  1  0
 46 47  2  0
 46 48  1  0
 48  2  1  0
 13  9  1  0
 44 14  1  0
 25 21  1  0
 37 26  1  0
 43 38  1  0
 35 30  1  0
M  END
>  <Title>  (25) 
idAANOgen8

$$$$

     RDKit          2D

 53 60  0  0  0  0  0  0  0  0999 V2000
    0.8311   10.2038    0.0000 C   0  0  0  0  0  0  0  0  0  0  0  0
   -0.5392    9.5937    0.0000 C   0  0  0  0  0  0  0  0  0  0  0  0
   -0.6960    8.1019    0.0000 C   0  0  0  0  0  0  0  0  0  0  0  0
   -2.0663    7.4918    0.0000 C   0  0  0  0  0  0  0  0  0  0  0  0
   -3.2798    8.3735    0.0000 C   0  0  0  0  0  0  0  0  0  0  0  0
   -4.6502    7.7634    0.0000 C   0  0  0  0  0  0  0  0  0  0  0  0
   -5.9492    8.5134    0.0000 N   0  0  0  0  0  0  0  0  0  0  0  0
   -7.0639    7.5097    0.0000 N   0  0  0  0  0  0  0  0  0  0  0  0
   -6.4538    6.1393    0.0000 N   0  0  0  0  0  0  0  0  0  0  0  0
   -4.9620    6.2961    0.0000 N   0  0  0  0  0  0  0  0  0  0  0  0
   -3.9583    5.1814    0.0000 C   0  0  0  0  0  0  0  0  0  0  0  0
   -2.4911    5.4933    0.0000 C   0  0  0  0  0  0  0  0  0  0  0  0
   -1.4874    4.3786    0.0000 C   0  0  0  0  0  0  0  0  0  0  0  0
   -1.9509    2.9520    0.0000 C   0  0  0  0  0  0  0  0  0  0  0  0
   -3.4182    2.6401    0.0000 C   0  0  0  0  0  0  0  0  0  0  0  0
   -4.4218    3.7548    0.0000 C   0  0  0  0  0  0  0  0  0  0  0  0
   -5.8891    3.4430    0.0000 C   0  0  0  0  0  0  0  0  0  0  0  0
   -6.8928    4.5577    0.0000 C   0  0  0  0  0  0  0  0  0  0  0  0
   -8.3600    4.2458    0.0000 C   0  0  0  0  0  0  0  0  0  0  0  0
   -8.8235    2.8192    0.0000 C   0  0  0  0  0  0  0  0  0  0  0  0
   -7.8198    1.7045    0.0000 C   0  0  0  0  0  0  0  0  0  0  0  0
   -6.3526    2.0164    0.0000 C   0  0  0  0  0  0  0  0  0  0  0  0
   -5.3489    0.9017    0.0000 C   0  0  0  0  0  0  0  0  0  0  0  0
   -3.8571    1.0585    0.0000 C   0  0  0  0  0  0  0  0  0  0  0  0
   -3.2470   -0.3119    0.0000 C   0  0  0  0  0  0  0  0  0  0  0  0
   -4.3617   -1.3156    0.0000 C   0  0  0  0  0  0  0  0  0  0  0  0
   -4.2049   -2.8073    0.0000 C   0  0  0  0  0  0  0  0  0  0  0  0
   -2.9059   -3.5573    0.0000 N   0  0  0  0  0  0  0  0  0  0  0  0
   -3.2178   -5.0246    0.0000 N   0  0  0  0  0  0  0  0  0  0  0  0
   -4.7095   -5.1814    0.0000 N   0  0  0  0  0  0  0  0  0  0  0  0
   -5.3197   -3.8110    0.0000 N   0  0  0  0  0  0  0  0  0  0  0  0
   -6.7869   -3.4992    0.0000 C   0  0  0  0  0  0  0  0  0  0  0  0
   -7.2504   -2.0726    0.0000 C   0  0  0  0  0  0  0  0  0  0  0  0
   -8.7176   -1.7607    0.0000 C   0  0  0  0  0  0  0  0  0  0  0  0
   -9.7213   -2.8754    0.0000 C   0  0  0  0  0  0  0  0  0  0  0  0
   -9.2578   -4.3020    0.0000 C   0  0  0  0  0  0  0  0  0  0  0  0
   -7.7906   -4.6139    0.0000 C   0  0  0  0  0  0  0  0  0  0  0  0
   -7.3270   -6.0405    0.0000 C   0  0  0  0  0  0  0  0  0  0  0  0
   -5.8598   -6.3523    0.0000 C   0  0  0  0  0  0  0  0  0  0  0  0
   -5.3963   -7.7789    0.0000 C   0  0  0  0  0  0  0  0  0  0  0  0
   -6.4000   -8.8936    0.0000 C   0  0  0  0  0  0  0  0  0  0  0  0
   -5.9365  -10.3202    0.0000 C   0  0  0  0  0  0  0  0  0  0  0  0
   -6.9402  -11.4349    0.0000 O   0  0  0  0  0  0  0  0  0  0  0  0
   -4.4692  -10.6321    0.0000 N   0  0  0  0  0  0  0  0  0  0  0  0
   -4.0057  -12.0587    0.0000 O   0  0  0  0  0  0  0  0  0  0  0  0
   -7.8672   -8.5818    0.0000 N   0  0  0  0  0  0  0  0  0  0  0  0
   -8.3307   -7.1552    0.0000 C   0  0  0  0  0  0  0  0  0  0  0  0
   -9.7980   -6.8433    0.0000 O   0  0  0  0  0  0  0  0  0  0  0  0
   -5.6608   -0.5656    0.0000 C   0  0  0  0  0  0  0  0  0  0  0  0
   -7.0311   -1.1757    0.0000 O   0  0  0  0  0  0  0  0  0  0  0  0
   -3.1230    9.8652    0.0000 C   0  0  0  0  0  0  0  0  0  0  0  0
   -4.3366   10.7469    0.0000 O   0  0  0  0  0  0  0  0  0  0  0  0
   -1.7527   10.4753    0.0000 N   0  0  0  0  0  0  0  0  0  0  0  0
  1  2  1  0
  2  3  2  0
  3  4  1  0
  4  5  2  0
  5  6  1  0
  6  7  2  0
  7  8  1  0
  8  9  2  0
  9 10  1  0
 10 11  1  0
 11 12  2  0
 12 13  1  0
 13 14  2  0
 14 15  1  0
 15 16  2  0
 16 17  1  0
 17 18  2  0
 18 19  1  0
 19 20  2  0
 20 21  1  0
 21 22  2  0
 22 23  1  0
 23 24  2  0
 24 25  1  0
 25 26  2  0
 26 27  1  0
 27 28  2  0
 28 29  1  0
 29 30  2  0
 30 31  1  0
 31 32  1  0
 32 33  2  0
 33 34  1  0
 34 35  2  0
 35 36  1  0
 36 37  2  0
 37 38  1  0
 38 39  2  0
 39 40  1  0
 40 41  2  0
 41 42  1  0
 42 43  2  0
 42 44  1  0
 44 45  1  0
 41 46  1  0
 46 47  1  0
 47 48  2  0
 26 49  1  0
 49 50  2  0
  5 51  1  0
 51 52  2  0
 51 53  1  0
 53  2  1  0
 10  6  1  0
 16 11  1  0
 22 17  1  0
 49 23  1  0
 31 27  1  0
 37 32  1  0
 47 38  1  0
M  END
>  <Title>  (26) 
idABVGgen10

$$$$

     RDKit          2D

 43 49  0  0  0  0  0  0  0  0999 V2000
    3.2286   -0.0000    0.0000 C   0  0  0  0  0  0  0  0  0  0  0  0
    1.7286    0.0000    0.0000 C   0  0  0  0  0  0  0  0  0  0  0  0
    1.0777    1.3515    0.0000 C   0  0  0  0  0  0  0  0  0  0  0  0
   -0.3846    1.6852    0.0000 C   0  0  0  0  0  0  0  0  0  0  0  0
   -1.5574    0.7500    0.0000 C   0  0  0  0  0  0  0  0  0  0  0  0
   -2.9088    1.4008    0.0000 C   0  0  0  0  0  0  0  0  0  0  0  0
   -4.2297    0.6900    0.0000 N   0  0  0  0  0  0  0  0  0  0  0  0
   -5.3139    1.7266    0.0000 N   0  0  0  0  0  0  0  0  0  0  0  0
   -4.6631    3.0781    0.0000 N   0  0  0  0  0  0  0  0  0  0  0  0
   -3.1767    2.8767    0.0000 N   0  0  0  0  0  0  0  0  0  0  0  0
   -2.1401    3.9609    0.0000 C   0  0  0  0  0  0  0  0  0  0  0  0
   -0.6829    3.6053    0.0000 C   0  0  0  0  0  0  0  0  0  0  0  0
    0.3537    4.6895    0.0000 C   0  0  0  0  0  0  0  0  0  0  0  0
   -0.0669    6.1293    0.0000 C   0  0  0  0  0  0  0  0  0  0  0  0
   -1.5241    6.4849    0.0000 C   0  0  0  0  0  0  0  0  0  0  0  0
   -2.5607    5.4007    0.0000 C   0  0  0  0  0  0  0  0  0  0  0  0
   -4.0180    5.7563    0.0000 C   0  0  0  0  0  0  0  0  0  0  0  0
   -5.1622    4.7864    0.0000 C   0  0  0  0  0  0  0  0  0  0  0  0
   -6.4382    5.5750    0.0000 C   0  0  0  0  0  0  0  0  0  0  0  0
   -6.0826    7.0322    0.0000 C   0  0  0  0  0  0  0  0  0  0  0  0
   -7.0525    8.1765    0.0000 C   0  0  0  0  0  0  0  0  0  0  0  0
   -8.5483    8.0644    0.0000 N   0  0  0  0  0  0  0  0  0  0  0  0
   -9.1171    9.4523    0.0000 N   0  0  0  0  0  0  0  0  0  0  0  0
   -7.9729   10.4222    0.0000 N   0  0  0  0  0  0  0  0  0  0  0  0
   -6.6969    9.6337    0.0000 N   0  0  0  0  0  0  0  0  0  0  0  0
   -5.3089   10.2025    0.0000 C   0  0  0  0  0  0  0  0  0  0  0  0
   -4.1223    9.2849    0.0000 C   0  0  0  0  0  0  0  0  0  0  0  0
   -2.7344    9.8538    0.0000 C   0  0  0  0  0  0  0  0  0  0  0  0
   -2.5330   11.3402    0.0000 C   0  0  0  0  0  0  0  0  0  0  0  0
   -3.7196   12.2578    0.0000 C   0  0  0  0  0  0  0  0  0  0  0  0
   -5.1076   11.6889    0.0000 C   0  0  0  0  0  0  0  0  0  0  0  0
   -6.2942   12.6065    0.0000 C   0  0  0  0  0  0  0  0  0  0  0  0
   -6.0928   14.0930    0.0000 C   0  0  0  0  0  0  0  0  0  0  0  0
   -7.2794   15.0105    0.0000 C   0  0  0  0  0  0  0  0  0  0  0  0
   -8.6674   14.4417    0.0000 C   0  0  0  0  0  0  0  0  0  0  0  0
   -8.8687   12.9553    0.0000 C   0  0  0  0  0  0  0  0  0  0  0  0
   -7.6821   12.0377    0.0000 C   0  0  0  0  0  0  0  0  0  0  0  0
   -4.5868    7.1443    0.0000 C   0  0  0  0  0  0  0  0  0  0  0  0
   -3.7983    8.4203    0.0000 O   0  0  0  0  0  0  0  0  0  0  0  0
   -1.5574   -0.7500    0.0000 N   0  0  0  0  0  0  0  0  0  0  0  0
   -0.3846   -1.6852    0.0000 C   0  0  0  0  0  0  0  0  0  0  0  0
   -0.7184   -3.1476    0.0000 O   0  0  0  0  0  0  0  0  0  0  0  0
    1.0777   -1.3515    0.0000 N   0  0  0  0  0  0  0  0  0  0  0  0
  1  2  1  0
  2  3  2  0
  3  4  1  0
  4  5  2  0
  5  6  1  0
  6  7  2  0
  7  8  1  0
  8  9  2  0
  9 10  1  0
 10 11  1  0
 11 12  1  0
 12 13  1  0
 13 14  1  0
 14 15  1  0
 15 16  1  0
 16 17  1  0
 17 18  2  0
 18 19  1  0
 19 20  2  0
 20 21  1  0
 21 22  2  0
 22 23  1  0
 23 24  2  0
 24 25  1  0
 25 26  1  0
 26 27  2  0
 27 28  1  0
 28 29  2  0
 29 30  1  0
 30 31  2  0
 31 32  1  0
 32 33  2  0
 33 34  1  0
 34 35  2  0
 35 36  1  0
 36 37  2  0
 20 38  1  0
 38 39  2  0
  5 40  1  0
 40 41  1  0
 41 42  2  0
 41 43  1  0
 43  2  1  0
 10  6  1  0
 16 11  1  0
 38 17  1  0
 25 21  1  0
 31 26  1  0
 37 32  1  0
M  END
>  <Title>  (27) 
idAAWLgen9

$$$$

     RDKit          2D

 48 55  0  0  0  0  0  0  0  0999 V2000
  -10.1624    4.2767    0.0000 C   0  0  0  0  0  0  0  0  0  0  0  0
   -8.9488    3.3950    0.0000 C   0  0  0  0  0  0  0  0  0  0  0  0
   -9.1056    1.9033    0.0000 C   0  0  0  0  0  0  0  0  0  0  0  0
   -7.8921    1.0216    0.0000 C   0  0  0  0  0  0  0  0  0  0  0  0
   -6.5218    1.6317    0.0000 C   0  0  0  0  0  0  0  0  0  0  0  0
   -5.3083    0.7500    0.0000 C   0  0  0  0  0  0  0  0  0  0  0  0
   -5.3083   -0.7500    0.0000 N   0  0  0  0  0  0  0  0  0  0  0  0
   -3.8817   -1.2135    0.0000 N   0  0  0  0  0  0  0  0  0  0  0  0
   -3.0000    0.0000    0.0000 N   0  0  0  0  0  0  0  0  0  0  0  0
   -3.8817    1.2135    0.0000 N   0  0  0  0  0  0  0  0  0  0  0  0
   -3.4182    2.6401    0.0000 C   0  0  0  0  0  0  0  0  0  0  0  0
   -4.2998    3.8536    0.0000 C   0  0  0  0  0  0  0  0  0  0  0  0
   -3.4182    5.0672    0.0000 C   0  0  0  0  0  0  0  0  0  0  0  0
   -1.9916    4.6036    0.0000 C   0  0  0  0  0  0  0  0  0  0  0  0
   -0.7780    5.4853    0.0000 C   0  0  0  0  0  0  0  0  0  0  0  0
   -0.7780    6.9853    0.0000 N   0  0  0  0  0  0  0  0  0  0  0  0
    0.6485    7.4488    0.0000 N   0  0  0  0  0  0  0  0  0  0  0  0
    1.5302    6.2353    0.0000 N   0  0  0  0  0  0  0  0  0  0  0  0
    0.6485    5.0218    0.0000 N   0  0  0  0  0  0  0  0  0  0  0  0
    1.1121    3.5952    0.0000 C   0  0  0  0  0  0  0  0  0  0  0  0
    0.1084    2.4805    0.0000 C   0  0  0  0  0  0  0  0  0  0  0  0
    0.5719    1.0539    0.0000 C   0  0  0  0  0  0  0  0  0  0  0  0
    2.0391    0.7420    0.0000 C   0  0  0  0  0  0  0  0  0  0  0  0
    2.5026   -0.6846    0.0000 C   0  0  0  0  0  0  0  0  0  0  0  0
    1.4989   -1.7993    0.0000 C   0  0  0  0  0  0  0  0  0  0  0  0
    1.9625   -3.2259    0.0000 C   0  0  0  0  0  0  0  0  0  0  0  0
    3.4297   -3.5377    0.0000 C   0  0  0  0  0  0  0  0  0  0  0  0
    4.4334   -2.4230    0.0000 C   0  0  0  0  0  0  0  0  0  0  0  0
    3.9699   -0.9964    0.0000 C   0  0  0  0  0  0  0  0  0  0  0  0
    3.0428    1.8568    0.0000 C   0  0  0  0  0  0  0  0  0  0  0  0
    2.5793    3.2833    0.0000 C   0  0  0  0  0  0  0  0  0  0  0  0
    3.5830    4.3981    0.0000 C   0  0  0  0  0  0  0  0  0  0  0  0
    3.1195    5.8246    0.0000 C   0  0  0  0  0  0  0  0  0  0  0  0
    4.1232    6.9394    0.0000 C   0  0  0  0  0  0  0  0  0  0  0  0
    5.5904    6.6275    0.0000 N   0  0  0  0  0  0  0  0  0  0  0  0
    6.0539    5.2009    0.0000 N   0  0  0  0  0  0  0  0  0  0  0  0
    5.0502    4.0862    0.0000 C   0  0  0  0  0  0  0  0  0  0  0  0
    5.5137    2.6596    0.0000 C   0  0  0  0  0  0  0  0  0  0  0  0
    6.9810    2.3477    0.0000 C   0  0  0  0  0  0  0  0  0  0  0  0
    7.4445    0.9211    0.0000 C   0  0  0  0  0  0  0  0  0  0  0  0
    6.4408   -0.1936    0.0000 C   0  0  0  0  0  0  0  0  0  0  0  0
    4.9736    0.1183    0.0000 C   0  0  0  0  0  0  0  0  0  0  0  0
    4.5100    1.5449    0.0000 C   0  0  0  0  0  0  0  0  0  0  0  0
   -1.9916    3.1036    0.0000 C   0  0  0  0  0  0  0  0  0  0  0  0
   -0.7780    2.2220    0.0000 O   0  0  0  0  0  0  0  0  0  0  0  0
   -6.3650    3.1235    0.0000 N   0  0  0  0  0  0  0  0  0  0  0  0
   -7.5785    4.0051    0.0000 C   0  0  0  0  0  0  0  0  0  0  0  0
   -7.4217    5.4969    0.0000 O   0  0  0  0  0  0  0  0  0  0  0  0
  1  2  1  0
  2  3  2  0
  3  4  1  0
  4  5  2  0
  5  6  1  0
  6  7  2  0
  7  8  1  0
  8  9  2  0
  9 10  1  0
 10 11  1  0
 11 12  2  0
 12 13  1  0
 13 14  2  0
 14 15  1  0
 15 16  2  0
 16 17  1  0
 17 18  2  0
 18 19  1  0
 19 20  1  0
 20 21  2  0
 21 22  1  0
 22 23  2  0
 23 24  1  0
 24 25  2  0
 25 26  1  0
 26 27  2  0
 27 28  1  0
 28 29  2  0
 23 30  1  0
 30 31  2  0
 31 32  1  0
 32 33  2  0
 33 34  1  0
 34 35  2  0
 35 36  1  0
 36 37  2  0
 37 38  1  0
 38 39  2  0
 39 40  1  0
 40 41  2  0
 41 42  1  0
 42 43  2  0
 14 44  1  0
 44 45  2  0
  5 46  1  0
 46 47  1  0
 47 48  2  0
 47  2  1  0
 10  6  1  0
 44 11  1  0
 19 15  1  0
 31 20  1  0
 37 32  1  0
 43 38  1  0
 29 24  1  0
M  END
>  <Title>  (28) 
idACOTgen10

$$$$

     RDKit          2D

 47 52  0  0  0  0  0  0  0  0999 V2000
    3.2286    0.0000    0.0000 C   0  0  0  0  0  0  0  0  0  0  0  0
    1.7286    0.0000    0.0000 C   0  0  0  0  0  0  0  0  0  0  0  0
    1.0777    1.3515    0.0000 C   0  0  0  0  0  0  0  0  0  0  0  0
   -0.3846    1.6852    0.0000 C   0  0  0  0  0  0  0  0  0  0  0  0
   -1.5574    0.7500    0.0000 C   0  0  0  0  0  0  0  0  0  0  0  0
   -2.9088    1.4008    0.0000 C   0  0  0  0  0  0  0  0  0  0  0  0
   -4.2297    0.6900    0.0000 N   0  0  0  0  0  0  0  0  0  0  0  0
   -5.3139    1.7266    0.0000 N   0  0  0  0  0  0  0  0  0  0  0  0
   -4.6631    3.0781    0.0000 N   0  0  0  0  0  0  0  0  0  0  0  0
   -3.1767    2.8767    0.0000 N   0  0  0  0  0  0  0  0  0  0  0  0
   -2.1401    3.9609    0.0000 C   0  0  0  0  0  0  0  0  0  0  0  0
   -0.6829    3.6053    0.0000 C   0  0  0  0  0  0  0  0  0  0  0  0
    0.3537    4.6895    0.0000 C   0  0  0  0  0  0  0  0  0  0  0  0
   -0.0669    6.1293    0.0000 C   0  0  0  0  0  0  0  0  0  0  0  0
    0.9697    7.2135    0.0000 C   0  0  0  0  0  0  0  0  0  0  0  0
    2.4269    6.8579    0.0000 C   0  0  0  0  0  0  0  0  0  0  0  0
    3.4635    7.9421    0.0000 C   0  0  0  0  0  0  0  0  0  0  0  0
    3.0429    9.3819    0.0000 C   0  0  0  0  0  0  0  0  0  0  0  0
    1.5856    9.7375    0.0000 N   0  0  0  0  0  0  0  0  0  0  0  0
    0.5491    8.6533    0.0000 C   0  0  0  0  0  0  0  0  0  0  0  0
   -0.9082    9.0089    0.0000 C   0  0  0  0  0  0  0  0  0  0  0  0
   -1.3288   10.4487    0.0000 C   0  0  0  0  0  0  0  0  0  0  0  0
   -2.7861   10.8044    0.0000 C   0  0  0  0  0  0  0  0  0  0  0  0
   -3.8227    9.7202    0.0000 C   0  0  0  0  0  0  0  0  0  0  0  0
   -5.2799   10.0758    0.0000 C   0  0  0  0  0  0  0  0  0  0  0  0
   -6.3165    8.9916    0.0000 O   0  0  0  0  0  0  0  0  0  0  0  0
   -5.7005   11.5156    0.0000 N   0  0  0  0  0  0  0  0  0  0  0  0
   -7.1578   11.8712    0.0000 O   0  0  0  0  0  0  0  0  0  0  0  0
   -3.4020    8.2804    0.0000 C   0  0  0  0  0  0  0  0  0  0  0  0
   -1.9448    7.9247    0.0000 C   0  0  0  0  0  0  0  0  0  0  0  0
   -1.5241    6.4849    0.0000 C   0  0  0  0  0  0  0  0  0  0  0  0
   -2.5607    5.4007    0.0000 C   0  0  0  0  0  0  0  0  0  0  0  0
   -4.0180    5.7563    0.0000 C   0  0  0  0  0  0  0  0  0  0  0  0
   -4.4386    7.1962    0.0000 C   0  0  0  0  0  0  0  0  0  0  0  0
   -5.8958    7.5518    0.0000 C   0  0  0  0  0  0  0  0  0  0  0  0
   -6.9324    6.4676    0.0000 C   0  0  0  0  0  0  0  0  0  0  0  0
   -8.3897    6.8232    0.0000 C   0  0  0  0  0  0  0  0  0  0  0  0
   -9.4263    5.7390    0.0000 O   0  0  0  0  0  0  0  0  0  0  0  0
   -8.8103    8.2630    0.0000 N   0  0  0  0  0  0  0  0  0  0  0  0
  -10.2675    8.6186    0.0000 O   0  0  0  0  0  0  0  0  0  0  0  0
   -6.5118    5.0278    0.0000 N   0  0  0  0  0  0  0  0  0  0  0  0
   -5.0546    4.6722    0.0000 C   0  0  0  0  0  0  0  0  0  0  0  0
   -5.0228    3.8756    0.0000 O   0  0  0  0  0  0  0  0  0  0  0  0
   -1.5574   -0.7500    0.0000 N   0  0  0  0  0  0  0  0  0  0  0  0
   -0.3846   -1.6852    0.0000 C   0  0  0  0  0  0  0  0  0  0  0  0
   -0.7184   -3.1476    0.0000 O   0  0  0  0  0  0  0  0  0  0  0  0
    1.0777   -1.3515    0.0000 C   0  0  0  0  0  0  0  0  0  0  0  0
  1  2  1  0
  2  3  2  0
  3  4  1  0
  4  5  2  0
  5  6  1  0
  6  7  2  0
  7  8  1  0
  8  9  2  0
  9 10  1  0
 10 11  1  0
 11 12  2  0
 12 13  1  0
 13 14  2  0
 14 15  1  0
 15 16  2  0
 16 17  1  0
 17 18  2  0
 18 19  1  0
 19 20  2  0
 20 21  1  0
 21 22  2  0
 22 23  1  0
 23 24  2  0
 24 25  1  0
 25 26  2  0
 25 27  1  0
 27 28  1  0
 24 29  1  0
 29 30  1  0
 14 31  1  0
 31 32  2  0
 32 33  1  0
 33 34  2  0
 34 35  1  0
 35 36  2  0
 36 37  1  0
 37 38  2  0
 37 39  1  0
 39 40  1  0
 36 41  1  0
 41 42  1  0
 42 43  2  0
  5 44  1  0
 44 45  1  0
 45 46  2  0
 45 47  1  0
 47  2  1  0
 10  6  1  0
 32 11  1  0
 42 33  1  0
 20 15  1  0
 30 21  1  0
M  END
>  <Title>  (29) 
idABPIgen10

$$$$

     RDKit          2D

 59 67  0  0  0  0  0  0  0  0999 V2000
    3.7500   -1.2990    0.0000 C   0  0  0  0  0  0  0  0  0  0  0  0
    3.0000    0.0000    0.0000 O   0  0  0  0  0  0  0  0  0  0  0  0
    1.5000    0.0000    0.0000 C   0  0  0  0  0  0  0  0  0  0  0  0
    0.7500   -1.2990    0.0000 C   0  0  0  0  0  0  0  0  0  0  0  0
   -0.7500   -1.2990    0.0000 C   0  0  0  0  0  0  0  0  0  0  0  0
   -1.5000    0.0000    0.0000 C   0  0  0  0  0  0  0  0  0  0  0  0
   -3.0000    0.0000    0.0000 C   0  0  0  0  0  0  0  0  0  0  0  0
   -3.8817   -1.2135    0.0000 N   0  0  0  0  0  0  0  0  0  0  0  0
   -5.3083   -0.7500    0.0000 N   0  0  0  0  0  0  0  0  0  0  0  0
   -5.3083    0.7500    0.0000 N   0  0  0  0  0  0  0  0  0  0  0  0
   -3.8817    1.2135    0.0000 N   0  0  0  0  0  0  0  0  0  0  0  0
   -3.4182    2.6401    0.0000 C   0  0  0  0  0  0  0  0  0  0  0  0
   -1.9509    2.9520    0.0000 C   0  0  0  0  0  0  0  0  0  0  0  0
   -1.4874    4.3786    0.0000 C   0  0  0  0  0  0  0  0  0  0  0  0
   -2.4911    5.4933    0.0000 C   0  0  0  0  0  0  0  0  0  0  0  0
   -2.0276    6.9199    0.0000 C   0  0  0  0  0  0  0  0  0  0  0  0
   -2.9093    8.1334    0.0000 N   0  0  0  0  0  0  0  0  0  0  0  0
   -2.0276    9.3469    0.0000 N   0  0  0  0  0  0  0  0  0  0  0  0
   -0.6010    8.8834    0.0000 N   0  0  0  0  0  0  0  0  0  0  0  0
   -0.6010    7.3834    0.0000 N   0  0  0  0  0  0  0  0  0  0  0  0
    0.6125    6.5017    0.0000 C   0  0  0  0  0  0  0  0  0  0  0  0
    0.4557    5.0099    0.0000 C   0  0  0  0  0  0  0  0  0  0  0  0
    1.6693    4.1283    0.0000 C   0  0  0  0  0  0  0  0  0  0  0  0
    3.0396    4.7384    0.0000 C   0  0  0  0  0  0  0  0  0  0  0  0
    3.1964    6.2301    0.0000 N   0  0  0  0  0  0  0  0  0  0  0  0
    1.9829    7.1118    0.0000 C   0  0  0  0  0  0  0  0  0  0  0  0
    2.1396    8.6036    0.0000 C   0  0  0  0  0  0  0  0  0  0  0  0
    3.5100    9.2137    0.0000 C   0  0  0  0  0  0  0  0  0  0  0  0
    3.6668   10.7055    0.0000 C   0  0  0  0  0  0  0  0  0  0  0  0
    2.4532   11.5872    0.0000 C   0  0  0  0  0  0  0  0  0  0  0  0
    1.0829   10.9771    0.0000 C   0  0  0  0  0  0  0  0  0  0  0  0
    0.9261    9.4853    0.0000 C   0  0  0  0  0  0  0  0  0  0  0  0
   -3.9583    5.1814    0.0000 C   0  0  0  0  0  0  0  0  0  0  0  0
   -4.4218    3.7548    0.0000 C   0  0  0  0  0  0  0  0  0  0  0  0
   -5.8891    3.4430    0.0000 C   0  0  0  0  0  0  0  0  0  0  0  0
   -6.4992    2.0726    0.0000 C   0  0  0  0  0  0  0  0  0  0  0  0
   -7.9910    2.2294    0.0000 C   0  0  0  0  0  0  0  0  0  0  0  0
   -8.3028    3.6967    0.0000 C   0  0  0  0  0  0  0  0  0  0  0  0
   -9.6731    4.3068    0.0000 C   0  0  0  0  0  0  0  0  0  0  0  0
  -10.9722    3.5568    0.0000 N   0  0  0  0  0  0  0  0  0  0  0  0
  -12.0869    4.5605    0.0000 N   0  0  0  0  0  0  0  0  0  0  0  0
  -11.4768    5.9308    0.0000 N   0  0  0  0  0  0  0  0  0  0  0  0
   -9.9850    5.7740    0.0000 N   0  0  0  0  0  0  0  0  0  0  0  0
   -8.9813    6.8887    0.0000 C   0  0  0  0  0  0  0  0  0  0  0  0
   -7.5141    6.5768    0.0000 C   0  0  0  0  0  0  0  0  0  0  0  0
   -6.5104    7.6915    0.0000 C   0  0  0  0  0  0  0  0  0  0  0  0
   -6.9739    9.1181    0.0000 C   0  0  0  0  0  0  0  0  0  0  0  0
   -5.9702   10.2329    0.0000 C   0  0  0  0  0  0  0  0  0  0  0  0
   -4.5030    9.9210    0.0000 O   0  0  0  0  0  0  0  0  0  0  0  0
   -6.4338   11.6594    0.0000 N   0  0  0  0  0  0  0  0  0  0  0  0
   -5.4301   12.7742    0.0000 O   0  0  0  0  0  0  0  0  0  0  0  0
   -8.4411    9.4300    0.0000 N   0  0  0  0  0  0  0  0  0  0  0  0
   -9.4448    8.3153    0.0000 C   0  0  0  0  0  0  0  0  0  0  0  0
  -10.9121    8.6272    0.0000 O   0  0  0  0  0  0  0  0  0  0  0  0
   -7.0038    4.4467    0.0000 C   0  0  0  0  0  0  0  0  0  0  0  0
   -6.8470    5.9384    0.0000 O   0  0  0  0  0  0  0  0  0  0  0  0
   -0.7500    1.2990    0.0000 N   0  0  0  0  0  0  0  0  0  0  0  0
    0.7500    1.2990    0.0000 C   0  0  0  0  0  0  0  0  0  0  0  0
    1.5000    2.5981    0.0000 O   0  0  0  0  0  0  0  0  0  0  0  0
  1  2  1  0
  2  3  1  0
  3  4  2  0
  4  5  1  0
  5  6  2  0
  6  7  1  0
  7  8  2  0
  8  9  1  0
  9 10  2  0
 10 11  1  0
 11 12  1  0
 12 13  2  0
 13 14  1  0
 14 15  2  0
 15 16  1  0
 16 17  2  0
 17 18  1  0
 18 19  2  0
 19 20  1  0
 20 21  1  0
 21 22  2  0
 22 23  1  0
 23 24  2  0
 24 25  1  0
 25 26  2  0
 26 27  1  0
 27 28  2  0
 28 29  1  0
 29 30  2  0
 30 31  1  0
 31 32  2  0
 15 33  1  0
 33 34  2  0
 34 35  1  0
 35 36  2  0
 36 37  1  0
 37 38  2  0
 38 39  1  0
 39 40  2  0
 40 41  1  0
 41 42  2  0
 42 43  1  0
 43 44  1  0
 44 45  2  0
 45 46  1  0
 46 47  2  0
 47 48  1  0
 48 49  2  0
 48 50  1  0
 50 51  1  0
 47 52  1  0
 52 53  1  0
 53 54  2  0
 38 55  1  0
 55 56  2  0
  6 57  1  0
 57 58  1  0
 58 59  2  0
 58  3  1  0
 11  7  1  0
 34 12  1  0
 55 35  1  0
 20 16  1  0
 26 21  1  0
 32 27  1  0
 43 39  1  0
 53 44  1  0
M  END
>  <Title>  (30) 
idAAZGgen10

$$$$

     RDKit          2D

 60 68  0  0  0  0  0  0  0  0999 V2000
    4.6740   -4.8322    0.0000 C   0  0  0  0  0  0  0  0  0  0  0  0
    3.3037   -4.2221    0.0000 C   0  0  0  0  0  0  0  0  0  0  0  0
    2.0046   -4.9721    0.0000 C   0  0  0  0  0  0  0  0  0  0  0  0
    0.8899   -3.9684    0.0000 C   0  0  0  0  0  0  0  0  0  0  0  0
    1.5000   -2.5981    0.0000 C   0  0  0  0  0  0  0  0  0  0  0  0
    0.7500   -1.2990    0.0000 C   0  0  0  0  0  0  0  0  0  0  0  0
    1.5000    0.0000    0.0000 C   0  0  0  0  0  0  0  0  0  0  0  0
    0.7500    1.2990    0.0000 C   0  0  0  0  0  0  0  0  0  0  0  0
    1.5000    2.5981    0.0000 C   0  0  0  0  0  0  0  0  0  0  0  0
    0.7500    3.8971    0.0000 O   0  0  0  0  0  0  0  0  0  0  0  0
    3.0000    2.5981    0.0000 N   0  0  0  0  0  0  0  0  0  0  0  0
    3.7500    3.8971    0.0000 C   0  0  0  0  0  0  0  0  0  0  0  0
    3.1399    5.2674    0.0000 N   0  0  0  0  0  0  0  0  0  0  0  0
    4.2546    6.2711    0.0000 C   0  0  0  0  0  0  0  0  0  0  0  0
    5.5537    5.5211    0.0000 N   0  0  0  0  0  0  0  0  0  0  0  0
    5.2418    4.0539    0.0000 N   0  0  0  0  0  0  0  0  0  0  0  0
    6.2455    2.9392    0.0000 C   0  0  0  0  0  0  0  0  0  0  0  0
    5.9336    1.4720    0.0000 N   0  0  0  0  0  0  0  0  0  0  0  0
    7.2326    0.7220    0.0000 N   0  0  0  0  0  0  0  0  0  0  0  0
    8.3474    1.7257    0.0000 N   0  0  0  0  0  0  0  0  0  0  0  0
    7.7373    3.0960    0.0000 N   0  0  0  0  0  0  0  0  0  0  0  0
    8.4873    4.3950    0.0000 C   0  0  0  0  0  0  0  0  0  0  0  0
    7.7373    5.6941    0.0000 C   0  0  0  0  0  0  0  0  0  0  0  0
    8.4873    6.9931    0.0000 C   0  0  0  0  0  0  0  0  0  0  0  0
    9.9873    6.9931    0.0000 C   0  0  0  0  0  0  0  0  0  0  0  0
   10.7373    8.2921    0.0000 C   0  0  0  0  0  0  0  0  0  0  0  0
    9.9873    9.5912    0.0000 C   0  0  0  0  0  0  0  0  0  0  0  0
   10.7373   10.8902    0.0000 C   0  0  0  0  0  0  0  0  0  0  0  0
   12.2373   10.8902    0.0000 C   0  0  0  0  0  0  0  0  0  0  0  0
   12.9873    9.5912    0.0000 C   0  0  0  0  0  0  0  0  0  0  0  0
   12.2373    8.2921    0.0000 C   0  0  0  0  0  0  0  0  0  0  0  0
   10.7373    5.6941    0.0000 C   0  0  0  0  0  0  0  0  0  0  0  0
    9.9873    4.3950    0.0000 C   0  0  0  0  0  0  0  0  0  0  0  0
   10.7373    3.0960    0.0000 C   0  0  0  0  0  0  0  0  0  0  0  0
   12.2373    3.0960    0.0000 C   0  0  0  0  0  0  0  0  0  0  0  0
   12.9873    1.7969    0.0000 C   0  0  0  0  0  0  0  0  0  0  0  0
   12.2373    0.4979    0.0000 C   0  0  0  0  0  0  0  0  0  0  0  0
   10.7373    0.4979    0.0000 C   0  0  0  0  0  0  0  0  0  0  0  0
    9.9873    1.7969    0.0000 C   0  0  0  0  0  0  0  0  0  0  0  0
   -0.7500    1.2990    0.0000 C   0  0  0  0  0  0  0  0  0  0  0  0
   -1.5000    0.0000    0.0000 C   0  0  0  0  0  0  0  0  0  0  0  0
   -0.7500   -1.2990    0.0000 C   0  0  0  0  0  0  0  0  0  0  0  0
   -1.5000   -2.5981    0.0000 N   0  0  0  0  0  0  0  0  0  0  0  0
   -0.8899   -3.9684    0.0000 N   0  0  0  0  0  0  0  0  0  0  0  0
   -2.0046   -4.9721    0.0000 N   0  0  0  0  0  0  0  0  0  0  0  0
   -3.3037   -4.2221    0.0000 N   0  0  0  0  0  0  0  0  0  0  0  0
   -2.9918   -2.7549    0.0000 C   0  0  0  0  0  0  0  0  0  0  0  0
   -3.9955   -1.6402    0.0000 N   0  0  0  0  0  0  0  0  0  0  0  0
   -5.4627   -1.9520    0.0000 C   0  0  0  0  0  0  0  0  0  0  0  0
   -5.9262   -3.3786    0.0000 O   0  0  0  0  0  0  0  0  0  0  0  0
   -6.4664   -0.8373    0.0000 C   0  0  0  0  0  0  0  0  0  0  0  0
   -6.0029    0.5893    0.0000 C   0  0  0  0  0  0  0  0  0  0  0  0
   -7.0066    1.7040    0.0000 C   0  0  0  0  0  0  0  0  0  0  0  0
   -8.4738    1.3921    0.0000 C   0  0  0  0  0  0  0  0  0  0  0  0
   -9.4775    2.5068    0.0000 C   0  0  0  0  0  0  0  0  0  0  0  0
   -8.9373   -0.0345    0.0000 C   0  0  0  0  0  0  0  0  0  0  0  0
  -10.4045   -0.3463    0.0000 O   0  0  0  0  0  0  0  0  0  0  0  0
   -7.9336   -1.1492    0.0000 N   0  0  0  0  0  0  0  0  0  0  0  0
    2.9918   -2.7549    0.0000 C   0  0  0  0  0  0  0  0  0  0  0  0
    3.9955   -1.6402    0.0000 O   0  0  0  0  0  0  0  0  0  0  0  0
  1  2  1  0
  2  3  2  0
  3  4  1  0
  4  5  2  0
  5  6  1  0
  6  7  2  0
  7  8  1  0
  8  9  1  0
  9 10  2  0
  9 11  1  0
 11 12  1  0
 12 13  2  0
 13 14  1  0
 14 15  2  0
 15 16  1  0
 16 17  1  0
 17 18  2  0
 18 19  1  0
 19 20  2  0
 20 21  1  0
 21 22  1  0
 22 23  2  0
 23 24  1  0
 24 25  2  0
 25 26  1  0
 26 27  2  0
 27 28  1  0
 28 29  2  0
 29 30  1  0
 30 31  2  0
 25 32  1  0
 32 33  2  0
 33 34  1  0
 34 35  2  0
 35 36  1  0
 36 37  2  0
 37 38  1  0
 38 39  2  0
  8 40  2  0
 40 41  1  0
 41 42  2  0
 42 43  1  0
 43 44  1  0
 44 45  2  0
 45 46  1  0
 46 47  2  0
 47 48  1  0
 48 49  1  0
 49 50  2  0
 49 51  1  0
 51 52  2  0
 52 53  1  0
 53 54  2  0
 54 55  1  0
 54 56  1  0
 56 57  2  0
 56 58  1  0
  5 59  1  0
 59 60  2  0
 59  2  1  0
 42  6  1  0
 47 43  1  0
 58 51  1  0
 16 12  1  0
 21 17  1  0
 33 22  1  0
 39 34  1  0
 31 26  1  0
M  END
>  <Title>  (31) 
idABHUgen6

$$$$

     RDKit          2D

 62 71  0  0  0  0  0  0  0  0999 V2000
    3.0000    0.0000    0.0000 C   0  0  0  0  0  0  0  0  0  0  0  0
    1.5000    0.0000    0.0000 C   0  0  0  0  0  0  0  0  0  0  0  0
    0.7500   -1.2990    0.0000 C   0  0  0  0  0  0  0  0  0  0  0  0
   -0.7500   -1.2990    0.0000 C   0  0  0  0  0  0  0  0  0  0  0  0
   -1.5000    0.0000    0.0000 C   0  0  0  0  0  0  0  0  0  0  0  0
   -3.0000    0.0000    0.0000 C   0  0  0  0  0  0  0  0  0  0  0  0
   -3.8817   -1.2135    0.0000 N   0  0  0  0  0  0  0  0  0  0  0  0
   -5.3083   -0.7500    0.0000 N   0  0  0  0  0  0  0  0  0  0  0  0
   -5.3083    0.7500    0.0000 N   0  0  0  0  0  0  0  0  0  0  0  0
   -3.8817    1.2135    0.0000 N   0  0  0  0  0  0  0  0  0  0  0  0
   -3.4182    2.6401    0.0000 C   0  0  0  0  0  0  0  0  0  0  0  0
   -1.9509    2.9520    0.0000 C   0  0  0  0  0  0  0  0  0  0  0  0
   -1.4874    4.3786    0.0000 C   0  0  0  0  0  0  0  0  0  0  0  0
   -2.4911    5.4933    0.0000 C   0  0  0  0  0  0  0  0  0  0  0  0
   -2.0276    6.9199    0.0000 C   0  0  0  0  0  0  0  0  0  0  0  0
   -2.9093    8.1334    0.0000 N   0  0  0  0  0  0  0  0  0  0  0  0
   -2.0276    9.3469    0.0000 N   0  0  0  0  0  0  0  0  0  0  0  0
   -0.6010    8.8834    0.0000 N   0  0  0  0  0  0  0  0  0  0  0  0
   -0.6010    7.3834    0.0000 N   0  0  0  0  0  0  0  0  0  0  0  0
    0.6125    6.5017    0.0000 C   0  0  0  0  0  0  0  0  0  0  0  0
    0.4557    5.0099    0.0000 C   0  0  0  0  0  0  0  0  0  0  0  0
    1.6693    4.1283    0.0000 C   0  0  0  0  0  0  0  0  0  0  0  0
    3.0396    4.7384    0.0000 C   0  0  0  0  0  0  0  0  0  0  0  0
    3.1964    6.2301    0.0000 N   0  0  0  0  0  0  0  0  0  0  0  0
    1.9829    7.1118    0.0000 C   0  0  0  0  0  0  0  0  0  0  0  0
    2.1396    8.6036    0.0000 C   0  0  0  0  0  0  0  0  0  0  0  0
    3.5100    9.2137    0.0000 C   0  0  0  0  0  0  0  0  0  0  0  0
    3.6668   10.7055    0.0000 C   0  0  0  0  0  0  0  0  0  0  0  0
    2.4532   11.5872    0.0000 C   0  0  0  0  0  0  0  0  0  0  0  0
    1.0829   10.9771    0.0000 N   0  0  0  0  0  0  0  0  0  0  0  0
    0.9261    9.4853    0.0000 C   0  0  0  0  0  0  0  0  0  0  0  0
   -3.9583    5.1814    0.0000 C   0  0  0  0  0  0  0  0  0  0  0  0
   -4.4218    3.7548    0.0000 C   0  0  0  0  0  0  0  0  0  0  0  0
   -5.8891    3.4430    0.0000 C   0  0  0  0  0  0  0  0  0  0  0  0
   -6.4992    2.0726    0.0000 C   0  0  0  0  0  0  0  0  0  0  0  0
   -7.9910    2.2294    0.0000 C   0  0  0  0  0  0  0  0  0  0  0  0
   -8.3028    3.6967    0.0000 C   0  0  0  0  0  0  0  0  0  0  0  0
   -9.6731    4.3068    0.0000 C   0  0  0  0  0  0  0  0  0  0  0  0
  -10.8867    3.4251    0.0000 O   0  0  0  0  0  0  0  0  0  0  0  0
   -9.8299    5.7985    0.0000 N   0  0  0  0  0  0  0  0  0  0  0  0
  -11.2003    6.4086    0.0000 C   0  0  0  0  0  0  0  0  0  0  0  0
  -12.4993    5.6586    0.0000 N   0  0  0  0  0  0  0  0  0  0  0  0
  -13.6140    6.6623    0.0000 N   0  0  0  0  0  0  0  0  0  0  0  0
  -13.0039    8.0327    0.0000 N   0  0  0  0  0  0  0  0  0  0  0  0
  -11.5121    7.8759    0.0000 N   0  0  0  0  0  0  0  0  0  0  0  0
  -10.5084    8.9906    0.0000 C   0  0  0  0  0  0  0  0  0  0  0  0
   -9.0412    8.6787    0.0000 C   0  0  0  0  0  0  0  0  0  0  0  0
   -8.0375    9.7934    0.0000 C   0  0  0  0  0  0  0  0  0  0  0  0
   -8.5010   11.2200    0.0000 C   0  0  0  0  0  0  0  0  0  0  0  0
   -9.9683   11.5319    0.0000 C   0  0  0  0  0  0  0  0  0  0  0  0
  -10.9720   10.4172    0.0000 C   0  0  0  0  0  0  0  0  0  0  0  0
  -12.4392   10.7290    0.0000 C   0  0  0  0  0  0  0  0  0  0  0  0
  -12.9027   12.1556    0.0000 C   0  0  0  0  0  0  0  0  0  0  0  0
  -14.3699   12.4675    0.0000 C   0  0  0  0  0  0  0  0  0  0  0  0
  -15.3736   11.3528    0.0000 N   0  0  0  0  0  0  0  0  0  0  0  0
  -14.9101    9.9262    0.0000 N   0  0  0  0  0  0  0  0  0  0  0  0
  -13.4429    9.6143    0.0000 C   0  0  0  0  0  0  0  0  0  0  0  0
   -7.0038    4.4467    0.0000 C   0  0  0  0  0  0  0  0  0  0  0  0
   -6.8470    5.9384    0.0000 O   0  0  0  0  0  0  0  0  0  0  0  0
   -0.7500    1.2990    0.0000 N   0  0  0  0  0  0  0  0  0  0  0  0
    0.7500    1.2990    0.0000 C   0  0  0  0  0  0  0  0  0  0  0  0
    1.5000    2.5981    0.0000 O   0  0  0  0  0  0  0  0  0  0  0  0
  1  2  1  0
  2  3  2  0
  3  4  1  0
  4  5  2  0
  5  6  1  0
  6  7  2  0
  7  8  1  0
  8  9  2  0
  9 10  1  0
 10 11  1  0
 11 12  2  0
 12 13  1  0
 13 14  2  0
 14 15  1  0
 15 16  2  0
 16 17  1  0
 17 18  2  0
 18 19  1  0
 19 20  1  0
 20 21  2  0
 21 22  1  0
 22 23  2  0
 23 24  1  0
 24 25  2  0
 25 26  1  0
 26 27  2  0
 27 28  1  0
 28 29  2  0
 29 30  1  0
 30 31  2  0
 14 32  1  0
 32 33  2  0
 33 34  1  0
 34 35  2  0
 35 36  1  0
 36 37  2  0
 37 38  1  0
 38 39  2  0
 38 40  1  0
 40 41  1  0
 41 42  2  0
 42 43  1  0
 43 44  2  0
 44 45  1  0
 45 46  1  0
 46 47  2  0
 47 48  1  0
 48 49  2  0
 49 50  1  0
 50 51  2  0
 51 52  1  0
 52 53  2  0
 53 54  1  0
 54 55  2  0
 55 56  1  0
 56 57  2  0
 37 58  1  0
 58 59  2  0
  5 60  1  0
 60 61  1  0
 61 62  2  0
 61  2  1  0
 10  6  1  0
 33 11  1  0
 58 34  1  0
 19 15  1  0
 25 20  1  0
 31 26  1  0
 45 41  1  0
 51 46  1  0
 57 52  1  0
M  END
>  <Title>  (32) 
idAAQPgen9

$$$$

     RDKit          2D

 38 43  0  0  0  0  0  0  0  0999 V2000
    2.8947   -6.9883    0.0000 C   0  0  0  0  0  0  0  0  0  0  0  0
    2.3206   -5.6025    0.0000 C   0  0  0  0  0  0  0  0  0  0  0  0
    3.4266   -4.5891    0.0000 C   0  0  0  0  0  0  0  0  0  0  0  0
    3.6223   -3.1020    0.0000 C   0  0  0  0  0  0  0  0  0  0  0  0
    2.8164   -1.8369    0.0000 C   0  0  0  0  0  0  0  0  0  0  0  0
    3.7295   -0.6468    0.0000 C   0  0  0  0  0  0  0  0  0  0  0  0
    3.3035    0.7914    0.0000 N   0  0  0  0  0  0  0  0  0  0  0  0
    4.5397    1.6410    0.0000 N   0  0  0  0  0  0  0  0  0  0  0  0
    5.7297    0.7278    0.0000 N   0  0  0  0  0  0  0  0  0  0  0  0
    5.2290   -0.6861    0.0000 N   0  0  0  0  0  0  0  0  0  0  0  0
    6.0786   -1.9223    0.0000 C   0  0  0  0  0  0  0  0  0  0  0  0
    7.5781   -1.9616    0.0000 C   0  0  0  0  0  0  0  0  0  0  0  0
    8.0041   -3.3998    0.0000 C   0  0  0  0  0  0  0  0  0  0  0  0
    6.7680   -4.2494    0.0000 C   0  0  0  0  0  0  0  0  0  0  0  0
    6.7287   -5.7489    0.0000 C   0  0  0  0  0  0  0  0  0  0  0  0
    5.4925   -6.5985    0.0000 N   0  0  0  0  0  0  0  0  0  0  0  0
    5.9185   -8.0367    0.0000 N   0  0  0  0  0  0  0  0  0  0  0  0
    7.4180   -8.0760    0.0000 N   0  0  0  0  0  0  0  0  0  0  0  0
    7.9187   -6.6620    0.0000 N   0  0  0  0  0  0  0  0  0  0  0  0
    9.3569   -6.2360    0.0000 C   0  0  0  0  0  0  0  0  0  0  0  0
   10.4450   -7.2685    0.0000 C   0  0  0  0  0  0  0  0  0  0  0  0
   11.8832   -6.8425    0.0000 C   0  0  0  0  0  0  0  0  0  0  0  0
   12.2334   -5.3840    0.0000 C   0  0  0  0  0  0  0  0  0  0  0  0
   11.1453   -4.3514    0.0000 C   0  0  0  0  0  0  0  0  0  0  0  0
    9.7071   -4.7775    0.0000 C   0  0  0  0  0  0  0  0  0  0  0  0
    5.5779   -3.3363    0.0000 C   0  0  0  0  0  0  0  0  0  0  0  0
    4.1397   -3.7623    0.0000 O   0  0  0  0  0  0  0  0  0  0  0  0
    1.3858   -1.3858    0.0000 C   0  0  0  0  0  0  0  0  0  0  0  0
    1.9598    0.0000    0.0000 C   0  0  0  0  0  0  0  0  0  0  0  0
    1.3858    1.3858    0.0000 C   0  0  0  0  0  0  0  0  0  0  0  0
    0.0000    1.9598    0.0000 C   0  0  0  0  0  0  0  0  0  0  0  0
   -1.3858    1.3858    0.0000 C   0  0  0  0  0  0  0  0  0  0  0  0
   -1.9598    0.0000    0.0000 C   0  0  0  0  0  0  0  0  0  0  0  0
   -1.3858   -1.3858    0.0000 C   0  0  0  0  0  0  0  0  0  0  0  0
   -0.0000   -1.9598    0.0000 C   0  0  0  0  0  0  0  0  0  0  0  0
   -0.6926   -3.2904    0.0000 C   0  0  0  0  0  0  0  0  0  0  0  0
   -0.3680   -4.7548    0.0000 C   0  0  0  0  0  0  0  0  0  0  0  0
    0.8221   -5.6679    0.0000 C   0  0  0  0  0  0  0  0  0  0  0  0
  1  2  1  0
  2  3  2  0
  3  4  1  0
  4  5  2  0
  5  6  1  0
  6  7  2  0
  7  8  1  0
  8  9  2  0
  9 10  1  0
 10 11  1  0
 11 12  2  0
 12 13  1  0
 13 14  2  0
 14 15  1  0
 15 16  2  0
 16 17  1  0
 17 18  2  0
 18 19  1  0
 19 20  1  0
 20 21  2  0
 21 22  1  0
 22 23  2  0
 23 24  1  0
 24 25  2  0
 14 26  1  0
 26 27  2  0
  5 28  1  0
 28 29  2  0
 29 30  1  0
 30 31  2  0
 31 32  1  0
 32 33  2  0
 33 34  1  0
 34 35  2  0
 35 36  1  0
 36 37  1  0
 37 38  1  0
 38  2  1  0
 10  6  1  0
 26 11  1  0
 35 28  1  0
 19 15  1  0
 25 20  1  0
M  END
>  <Title>  (33) 
idACHHgen4

$$$$

     RDKit          2D

 52 59  0  0  0  0  0  0  0  0999 V2000
    3.0000    0.0000    0.0000 C   0  0  0  0  0  0  0  0  0  0  0  0
    1.5000    0.0000    0.0000 C   0  0  0  0  0  0  0  0  0  0  0  0
    0.7500    1.2990    0.0000 C   0  0  0  0  0  0  0  0  0  0  0  0
   -0.7500    1.2990    0.0000 C   0  0  0  0  0  0  0  0  0  0  0  0
   -1.5000    0.0000    0.0000 C   0  0  0  0  0  0  0  0  0  0  0  0
   -3.0000    0.0000    0.0000 C   0  0  0  0  0  0  0  0  0  0  0  0
   -3.8817   -1.2135    0.0000 N   0  0  0  0  0  0  0  0  0  0  0  0
   -5.3083   -0.7500    0.0000 N   0  0  0  0  0  0  0  0  0  0  0  0
   -5.3083    0.7500    0.0000 N   0  0  0  0  0  0  0  0  0  0  0  0
   -3.8817    1.2135    0.0000 N   0  0  0  0  0  0  0  0  0  0  0  0
   -3.4182    2.6401    0.0000 C   0  0  0  0  0  0  0  0  0  0  0  0
   -1.9509    2.9520    0.0000 C   0  0  0  0  0  0  0  0  0  0  0  0
   -1.4874    4.3786    0.0000 C   0  0  0  0  0  0  0  0  0  0  0  0
   -2.4911    5.4933    0.0000 C   0  0  0  0  0  0  0  0  0  0  0  0
   -3.9583    5.1814    0.0000 C   0  0  0  0  0  0  0  0  0  0  0  0
   -4.4218    3.7548    0.0000 C   0  0  0  0  0  0  0  0  0  0  0  0
   -5.8891    3.4430    0.0000 N   0  0  0  0  0  0  0  0  0  0  0  0
   -6.4992    2.0726    0.0000 N   0  0  0  0  0  0  0  0  0  0  0  0
   -7.9910    2.2294    0.0000 N   0  0  0  0  0  0  0  0  0  0  0  0
   -8.3028    3.6967    0.0000 N   0  0  0  0  0  0  0  0  0  0  0  0
   -7.0038    4.4467    0.0000 C   0  0  0  0  0  0  0  0  0  0  0  0
   -6.8470    5.9384    0.0000 N   0  0  0  0  0  0  0  0  0  0  0  0
   -5.4767    6.5485    0.0000 N   0  0  0  0  0  0  0  0  0  0  0  0
   -5.3199    8.0403    0.0000 N   0  0  0  0  0  0  0  0  0  0  0  0
   -6.5334    8.9220    0.0000 N   0  0  0  0  0  0  0  0  0  0  0  0
   -7.9037    8.3119    0.0000 N   0  0  0  0  0  0  0  0  0  0  0  0
   -8.0605    6.8201    0.0000 N   0  0  0  0  0  0  0  0  0  0  0  0
   -9.4308    6.2100    0.0000 C   0  0  0  0  0  0  0  0  0  0  0  0
   -9.5876    4.7182    0.0000 C   0  0  0  0  0  0  0  0  0  0  0  0
  -10.9579    4.1081    0.0000 C   0  0  0  0  0  0  0  0  0  0  0  0
  -12.1715    4.9898    0.0000 C   0  0  0  0  0  0  0  0  0  0  0  0
  -13.5418    4.3797    0.0000 C   0  0  0  0  0  0  0  0  0  0  0  0
  -13.6986    2.8879    0.0000 C   0  0  0  0  0  0  0  0  0  0  0  0
  -15.0689    2.2778    0.0000 C   0  0  0  0  0  0  0  0  0  0  0  0
  -16.2824    3.1595    0.0000 C   0  0  0  0  0  0  0  0  0  0  0  0
  -16.1256    4.6513    0.0000 C   0  0  0  0  0  0  0  0  0  0  0  0
  -14.7553    5.2614    0.0000 C   0  0  0  0  0  0  0  0  0  0  0  0
  -12.0147    6.4816    0.0000 C   0  0  0  0  0  0  0  0  0  0  0  0
  -10.6444    7.0917    0.0000 C   0  0  0  0  0  0  0  0  0  0  0  0
  -10.4876    8.5835    0.0000 C   0  0  0  0  0  0  0  0  0  0  0  0
  -11.7011    9.4652    0.0000 C   0  0  0  0  0  0  0  0  0  0  0  0
  -11.5443   10.9569    0.0000 C   0  0  0  0  0  0  0  0  0  0  0  0
  -10.1740   11.5670    0.0000 C   0  0  0  0  0  0  0  0  0  0  0  0
  -10.0172   13.0588    0.0000 C   0  0  0  0  0  0  0  0  0  0  0  0
   -8.6469   13.6689    0.0000 O   0  0  0  0  0  0  0  0  0  0  0  0
  -11.2307   13.9405    0.0000 N   0  0  0  0  0  0  0  0  0  0  0  0
  -11.0739   15.4323    0.0000 O   0  0  0  0  0  0  0  0  0  0  0  0
   -8.9605   10.6854    0.0000 C   0  0  0  0  0  0  0  0  0  0  0  0
   -9.1173    9.1936    0.0000 C   0  0  0  0  0  0  0  0  0  0  0  0
   -0.7500   -1.2990    0.0000 C   0  0  0  0  0  0  0  0  0  0  0  0
   -1.5000   -2.5981    0.0000 O   0  0  0  0  0  0  0  0  0  0  0  0
    0.7500   -1.2990    0.0000 N   0  0  0  0  0  0  0  0  0  0  0  0
  1  2  1  0
  2  3  2  0
  3  4  1  0
  4  5  2  0
  5  6  1  0
  6  7  2  0
  7  8  1  0
  8  9  2  0
  9 10  1  0
 10 11  1  0
 11 12  2  0
 12 13  1  0
 13 14  2  0
 14 15  1  0
 15 16  2  0
 16 17  1  0
 17 18  1  0
 18 19  2  0
 19 20  1  0
 20 21  2  0
 21 22  1  0
 22 23  1  0
 23 24  2  0
 24 25  1  0
 25 26  2  0
 26 27  1  0
 27 28  1  0
 28 29  2  0
 29 30  1  0
 30 31  2  0
 31 32  1  0
 32 33  2  0
 33 34  1  0
 34 35  2  0
 35 36  1  0
 36 37  2  0
 31 38  1  0
 38 39  2  0
 39 40  1  0
 40 41  2  0
 41 42  1  0
 42 43  2  0
 43 44  1  0
 44 45  2  0
 44 46  1  0
 46 47  1  0
 43 48  1  0
 48 49  1  0
  5 50  1  0
 50 51  2  0
 50 52  1  0
 52  2  1  0
 10  6  1  0
 16 11  1  0
 21 17  1  0
 27 22  1  0
 39 28  1  0
 49 40  1  0
 37 32  1  0
M  END
>  <Title>  (34) 
idAAPMgen7

$$$$

     RDKit          2D

 51 58  0  0  0  0  0  0  0  0999 V2000
    3.2286   -0.0000    0.0000 C   0  0  0  0  0  0  0  0  0  0  0  0
    1.7286    0.0000    0.0000 C   0  0  0  0  0  0  0  0  0  0  0  0
    1.0777    1.3515    0.0000 C   0  0  0  0  0  0  0  0  0  0  0  0
   -0.3846    1.6852    0.0000 C   0  0  0  0  0  0  0  0  0  0  0  0
   -1.5574    0.7500    0.0000 C   0  0  0  0  0  0  0  0  0  0  0  0
   -2.9088    1.4008    0.0000 C   0  0  0  0  0  0  0  0  0  0  0  0
   -4.1482    0.5558    0.0000 O   0  0  0  0  0  0  0  0  0  0  0  0
   -3.0209    2.8966    0.0000 N   0  0  0  0  0  0  0  0  0  0  0  0
   -4.3724    3.5475    0.0000 C   0  0  0  0  0  0  0  0  0  0  0  0
   -5.6933    2.8367    0.0000 N   0  0  0  0  0  0  0  0  0  0  0  0
   -6.7775    3.8732    0.0000 N   0  0  0  0  0  0  0  0  0  0  0  0
   -6.1267    5.2247    0.0000 N   0  0  0  0  0  0  0  0  0  0  0  0
   -4.6402    5.0234    0.0000 N   0  0  0  0  0  0  0  0  0  0  0  0
   -3.6036    6.1075    0.0000 C   0  0  0  0  0  0  0  0  0  0  0  0
   -2.1464    5.7519    0.0000 C   0  0  0  0  0  0  0  0  0  0  0  0
   -1.1098    6.8361    0.0000 C   0  0  0  0  0  0  0  0  0  0  0  0
   -1.5304    8.2759    0.0000 C   0  0  0  0  0  0  0  0  0  0  0  0
   -2.9877    8.6315    0.0000 C   0  0  0  0  0  0  0  0  0  0  0  0
   -4.0243    7.5474    0.0000 C   0  0  0  0  0  0  0  0  0  0  0  0
   -5.4815    7.9030    0.0000 C   0  0  0  0  0  0  0  0  0  0  0  0
   -6.6258    6.9331    0.0000 N   0  0  0  0  0  0  0  0  0  0  0  0
   -7.9018    7.7216    0.0000 N   0  0  0  0  0  0  0  0  0  0  0  0
   -7.5462    9.1788    0.0000 N   0  0  0  0  0  0  0  0  0  0  0  0
   -6.0503    9.2909    0.0000 N   0  0  0  0  0  0  0  0  0  0  0  0
   -5.2618   10.5670    0.0000 C   0  0  0  0  0  0  0  0  0  0  0  0
   -5.8307   11.9549    0.0000 C   0  0  0  0  0  0  0  0  0  0  0  0
   -4.6864   12.9248    0.0000 C   0  0  0  0  0  0  0  0  0  0  0  0
   -3.4104   12.1363    0.0000 C   0  0  0  0  0  0  0  0  0  0  0  0
   -2.0224   12.7051    0.0000 C   0  0  0  0  0  0  0  0  0  0  0  0
   -0.7464   11.9166    0.0000 N   0  0  0  0  0  0  0  0  0  0  0  0
    0.3978   12.8865    0.0000 N   0  0  0  0  0  0  0  0  0  0  0  0
   -0.1710   14.2745    0.0000 N   0  0  0  0  0  0  0  0  0  0  0  0
   -1.6668   14.1624    0.0000 N   0  0  0  0  0  0  0  0  0  0  0  0
   -2.6367   15.3066    0.0000 C   0  0  0  0  0  0  0  0  0  0  0  0
   -4.1126   15.0388    0.0000 C   0  0  0  0  0  0  0  0  0  0  0  0
   -5.0825   16.1830    0.0000 C   0  0  0  0  0  0  0  0  0  0  0  0
   -4.5765   17.5951    0.0000 C   0  0  0  0  0  0  0  0  0  0  0  0
   -5.5464   18.7393    0.0000 C   0  0  0  0  0  0  0  0  0  0  0  0
   -7.0223   18.4715    0.0000 C   0  0  0  0  0  0  0  0  0  0  0  0
   -7.9922   19.6157    0.0000 C   0  0  0  0  0  0  0  0  0  0  0  0
   -7.4862   21.0278    0.0000 C   0  0  0  0  0  0  0  0  0  0  0  0
   -6.0103   21.2957    0.0000 C   0  0  0  0  0  0  0  0  0  0  0  0
   -5.0404   20.1514    0.0000 C   0  0  0  0  0  0  0  0  0  0  0  0
   -3.1006   17.8629    0.0000 C   0  0  0  0  0  0  0  0  0  0  0  0
   -2.1307   16.7187    0.0000 C   0  0  0  0  0  0  0  0  0  0  0  0
   -3.7660   10.6790    0.0000 C   0  0  0  0  0  0  0  0  0  0  0  0
   -2.7961    9.5348    0.0000 O   0  0  0  0  0  0  0  0  0  0  0  0
   -1.5574   -0.7500    0.0000 N   0  0  0  0  0  0  0  0  0  0  0  0
   -0.3846   -1.6852    0.0000 C   0  0  0  0  0  0  0  0  0  0  0  0
   -0.7184   -3.1476    0.0000 O   0  0  0  0  0  0  0  0  0  0  0  0
    1.0777   -1.3515    0.0000 N   0  0  0  0  0  0  0  0  0  0  0  0
  1  2  1  0
  2  3  2  0
  3  4  1  0
  4  5  2  0
  5  6  1  0
  6  7  2  0
  6  8  1  0
  8  9  1  0
  9 10  2  0
 10 11  1  0
 11 12  2  0
 12 13  1  0
 13 14  1  0
 14 15  1  0
 15 16  1  0
 16 17  1  0
 17 18  1  0
 18 19  1  0
 19 20  1  0
 20 21  2  0
 21 22  1  0
 22 23  2  0
 23 24  1  0
 24 25  1  0
 25 26  2  0
 26 27  1  0
 27 28  2  0
 28 29  1  0
 29 30  2  0
 30 31  1  0
 31 32  2  0
 32 33  1  0
 33 34  1  0
 34 35  2  0
 35 36  1  0
 36 37  2  0
 37 38  1  0
 38 39  2  0
 39 40  1  0
 40 41  2  0
 41 42  1  0
 42 43  2  0
 37 44  1  0
 44 45  2  0
 28 46  1  0
 46 47  2  0
  5 48  1  0
 48 49  1  0
 49 50  2  0
 49 51  1  0
 51  2  1  0
 13  9  1  0
 19 14  1  0
 24 20  1  0
 46 25  1  0
 33 29  1  0
 45 34  1  0
 43 38  1  0
M  END
>  <Title>  (35) 
idAAXDgen8

$$$$

     RDKit          2D

 48 54  0  0  0  0  0  0  0  0999 V2000
    3.6929    0.0000    0.0000 C   0  0  0  0  0  0  0  0  0  0  0  0
    2.1929    0.0000    0.0000 C   0  0  0  0  0  0  0  0  0  0  0  0
    1.6798    1.4095    0.0000 C   0  0  0  0  0  0  0  0  0  0  0  0
    0.3808    2.1595    0.0000 C   0  0  0  0  0  0  0  0  0  0  0  0
   -1.0964    1.8991    0.0000 C   0  0  0  0  0  0  0  0  0  0  0  0
   -2.0606    0.7500    0.0000 C   0  0  0  0  0  0  0  0  0  0  0  0
   -3.4701    1.2630    0.0000 C   0  0  0  0  0  0  0  0  0  0  0  0
   -2.0606   -0.7500    0.0000 N   0  0  0  0  0  0  0  0  0  0  0  0
   -1.0964   -1.8991    0.0000 C   0  0  0  0  0  0  0  0  0  0  0  0
   -1.8464   -3.1981    0.0000 C   0  0  0  0  0  0  0  0  0  0  0  0
   -1.2363   -4.5684    0.0000 N   0  0  0  0  0  0  0  0  0  0  0  0
   -2.3510   -5.5721    0.0000 N   0  0  0  0  0  0  0  0  0  0  0  0
   -3.6501   -4.8221    0.0000 N   0  0  0  0  0  0  0  0  0  0  0  0
   -3.3382   -3.3549    0.0000 N   0  0  0  0  0  0  0  0  0  0  0  0
   -4.3419   -2.2402    0.0000 C   0  0  0  0  0  0  0  0  0  0  0  0
   -3.8784   -0.8136    0.0000 C   0  0  0  0  0  0  0  0  0  0  0  0
   -4.8821    0.3011    0.0000 C   0  0  0  0  0  0  0  0  0  0  0  0
   -6.3493   -0.0107    0.0000 C   0  0  0  0  0  0  0  0  0  0  0  0
   -6.8128   -1.4373    0.0000 C   0  0  0  0  0  0  0  0  0  0  0  0
   -5.8091   -2.5520    0.0000 C   0  0  0  0  0  0  0  0  0  0  0  0
   -6.2727   -3.9786    0.0000 C   0  0  0  0  0  0  0  0  0  0  0  0
   -5.3910   -5.1922    0.0000 C   0  0  0  0  0  0  0  0  0  0  0  0
   -6.2727   -6.4057    0.0000 C   0  0  0  0  0  0  0  0  0  0  0  0
   -7.6992   -5.9422    0.0000 C   0  0  0  0  0  0  0  0  0  0  0  0
   -8.9128   -6.8238    0.0000 C   0  0  0  0  0  0  0  0  0  0  0  0
   -8.7560   -8.3156    0.0000 O   0  0  0  0  0  0  0  0  0  0  0  0
  -10.2831   -6.2137    0.0000 N   0  0  0  0  0  0  0  0  0  0  0  0
  -11.4966   -7.0954    0.0000 C   0  0  0  0  0  0  0  0  0  0  0  0
  -11.4966   -8.5954    0.0000 N   0  0  0  0  0  0  0  0  0  0  0  0
  -12.9232   -9.0589    0.0000 N   0  0  0  0  0  0  0  0  0  0  0  0
  -13.8049   -7.8454    0.0000 N   0  0  0  0  0  0  0  0  0  0  0  0
  -12.9232   -6.6319    0.0000 N   0  0  0  0  0  0  0  0  0  0  0  0
  -13.3867   -5.2053    0.0000 C   0  0  0  0  0  0  0  0  0  0  0  0
  -14.8133   -4.7418    0.0000 C   0  0  0  0  0  0  0  0  0  0  0  0
  -14.8133   -3.2418    0.0000 C   0  0  0  0  0  0  0  0  0  0  0  0
  -13.3867   -2.7782    0.0000 C   0  0  0  0  0  0  0  0  0  0  0  0
  -12.9232   -1.3517    0.0000 C   0  0  0  0  0  0  0  0  0  0  0  0
  -11.4560   -1.0398    0.0000 C   0  0  0  0  0  0  0  0  0  0  0  0
  -10.9924    0.3868    0.0000 C   0  0  0  0  0  0  0  0  0  0  0  0
  -11.9961    1.5015    0.0000 C   0  0  0  0  0  0  0  0  0  0  0  0
  -13.4634    1.1896    0.0000 C   0  0  0  0  0  0  0  0  0  0  0  0
  -13.9269   -0.2369    0.0000 C   0  0  0  0  0  0  0  0  0  0  0  0
  -12.5050   -3.9918    0.0000 C   0  0  0  0  0  0  0  0  0  0  0  0
  -11.0050   -3.9918    0.0000 O   0  0  0  0  0  0  0  0  0  0  0  0
   -7.6992   -4.4422    0.0000 C   0  0  0  0  0  0  0  0  0  0  0  0
   -8.9128   -3.5605    0.0000 O   0  0  0  0  0  0  0  0  0  0  0  0
    0.3808   -2.1595    0.0000 C   0  0  0  0  0  0  0  0  0  0  0  0
    1.6798   -1.4095    0.0000 C   0  0  0  0  0  0  0  0  0  0  0  0
  1  2  1  0
  2  3  1  0
  3  4  2  0
  4  5  1  0
  5  6  2  0
  6  7  1  0
  6  8  1  0
  8  9  1  0
  9 10  1  0
 10 11  2  0
 11 12  1  0
 12 13  2  0
 13 14  1  0
 14 15  1  0
 15 16  2  0
 16 17  1  0
 17 18  2  0
 18 19  1  0
 19 20  2  0
 20 21  1  0
 21 22  2  0
 22 23  1  0
 23 24  2  0
 24 25  1  0
 25 26  2  0
 25 27  1  0
 27 28  1  0
 28 29  2  0
 29 30  1  0
 30 31  2  0
 31 32  1  0
 32 33  1  0
 33 34  2  0
 34 35  1  0
 35 36  2  0
 36 37  1  0
 37 38  2  0
 38 39  1  0
 39 40  2  0
 40 41  1  0
 41 42  2  0
 36 43  1  0
 43 44  2  0
 24 45  1  0
 45 46  2  0
  9 47  2  0
 47 48  1  0
 48  2  2  0
 14 10  1  0
 20 15  1  0
 45 21  1  0
 32 28  1  0
 43 33  1  0
 42 37  1  0
M  END
>  <Title>  (36) 
idABIIgen8

$$$$

     RDKit          2D

 59 66  0  0  0  0  0  0  0  0999 V2000
    3.0000    0.0000    0.0000 C   0  0  0  0  0  0  0  0  0  0  0  0
    1.5000    0.0000    0.0000 C   0  0  0  0  0  0  0  0  0  0  0  0
    0.7500   -1.2990    0.0000 C   0  0  0  0  0  0  0  0  0  0  0  0
   -0.7500   -1.2990    0.0000 C   0  0  0  0  0  0  0  0  0  0  0  0
   -1.5000    0.0000    0.0000 C   0  0  0  0  0  0  0  0  0  0  0  0
   -3.0000    0.0000    0.0000 C   0  0  0  0  0  0  0  0  0  0  0  0
   -3.8817   -1.2135    0.0000 N   0  0  0  0  0  0  0  0  0  0  0  0
   -5.3083   -0.7500    0.0000 N   0  0  0  0  0  0  0  0  0  0  0  0
   -5.3083    0.7500    0.0000 N   0  0  0  0  0  0  0  0  0  0  0  0
   -3.8817    1.2135    0.0000 N   0  0  0  0  0  0  0  0  0  0  0  0
   -3.4182    2.6401    0.0000 C   0  0  0  0  0  0  0  0  0  0  0  0
   -1.9509    2.9520    0.0000 C   0  0  0  0  0  0  0  0  0  0  0  0
   -1.4874    4.3786    0.0000 C   0  0  0  0  0  0  0  0  0  0  0  0
   -2.4911    5.4933    0.0000 C   0  0  0  0  0  0  0  0  0  0  0  0
   -2.0276    6.9199    0.0000 C   0  0  0  0  0  0  0  0  0  0  0  0
   -3.0313    8.0346    0.0000 O   0  0  0  0  0  0  0  0  0  0  0  0
   -0.5604    7.2317    0.0000 N   0  0  0  0  0  0  0  0  0  0  0  0
   -0.0968    8.6583    0.0000 C   0  0  0  0  0  0  0  0  0  0  0  0
   -0.9785    9.8718    0.0000 N   0  0  0  0  0  0  0  0  0  0  0  0
   -0.0968   11.0854    0.0000 N   0  0  0  0  0  0  0  0  0  0  0  0
    1.3298   10.6218    0.0000 N   0  0  0  0  0  0  0  0  0  0  0  0
    1.3298    9.1218    0.0000 N   0  0  0  0  0  0  0  0  0  0  0  0
    2.5433    8.2402    0.0000 C   0  0  0  0  0  0  0  0  0  0  0  0
    2.3865    6.7484    0.0000 C   0  0  0  0  0  0  0  0  0  0  0  0
    3.6000    5.8667    0.0000 C   0  0  0  0  0  0  0  0  0  0  0  0
    4.9703    6.4768    0.0000 C   0  0  0  0  0  0  0  0  0  0  0  0
    5.1271    7.9686    0.0000 C   0  0  0  0  0  0  0  0  0  0  0  0
    3.9136    8.8503    0.0000 C   0  0  0  0  0  0  0  0  0  0  0  0
   -3.9583    5.1814    0.0000 C   0  0  0  0  0  0  0  0  0  0  0  0
   -4.4218    3.7548    0.0000 C   0  0  0  0  0  0  0  0  0  0  0  0
   -5.8891    3.4430    0.0000 C   0  0  0  0  0  0  0  0  0  0  0  0
   -6.4992    2.0726    0.0000 C   0  0  0  0  0  0  0  0  0  0  0  0
   -7.9910    2.2294    0.0000 C   0  0  0  0  0  0  0  0  0  0  0  0
   -8.3028    3.6967    0.0000 C   0  0  0  0  0  0  0  0  0  0  0  0
   -9.6731    4.3068    0.0000 C   0  0  0  0  0  0  0  0  0  0  0  0
  -10.8867    3.4251    0.0000 O   0  0  0  0  0  0  0  0  0  0  0  0
   -9.8299    5.7985    0.0000 N   0  0  0  0  0  0  0  0  0  0  0  0
  -11.2003    6.4086    0.0000 C   0  0  0  0  0  0  0  0  0  0  0  0
  -12.4138    5.5270    0.0000 O   0  0  0  0  0  0  0  0  0  0  0  0
  -11.3570    7.9004    0.0000 C   0  0  0  0  0  0  0  0  0  0  0  0
  -12.6561    8.6504    0.0000 C   0  0  0  0  0  0  0  0  0  0  0  0
  -12.3442   10.1177    0.0000 C   0  0  0  0  0  0  0  0  0  0  0  0
  -10.8524   10.2744    0.0000 C   0  0  0  0  0  0  0  0  0  0  0  0
  -10.1024   11.5735    0.0000 C   0  0  0  0  0  0  0  0  0  0  0  0
  -10.8524   12.8725    0.0000 O   0  0  0  0  0  0  0  0  0  0  0  0
   -8.6024   11.5735    0.0000 N   0  0  0  0  0  0  0  0  0  0  0  0
   -7.8524   12.8725    0.0000 C   0  0  0  0  0  0  0  0  0  0  0  0
   -6.3524   12.8725    0.0000 C   0  0  0  0  0  0  0  0  0  0  0  0
   -5.6024   14.1716    0.0000 C   0  0  0  0  0  0  0  0  0  0  0  0
   -6.3524   15.4706    0.0000 C   0  0  0  0  0  0  0  0  0  0  0  0
   -7.8524   15.4706    0.0000 C   0  0  0  0  0  0  0  0  0  0  0  0
   -8.6024   14.1716    0.0000 C   0  0  0  0  0  0  0  0  0  0  0  0
  -10.2423    8.9041    0.0000 C   0  0  0  0  0  0  0  0  0  0  0  0
   -8.7751    8.5923    0.0000 O   0  0  0  0  0  0  0  0  0  0  0  0
   -7.0038    4.4467    0.0000 C   0  0  0  0  0  0  0  0  0  0  0  0
   -6.8470    5.9384    0.0000 O   0  0  0  0  0  0  0  0  0  0  0  0
   -0.7500    1.2990    0.0000 N   0  0  0  0  0  0  0  0  0  0  0  0
    0.7500    1.2990    0.0000 C   0  0  0  0  0  0  0  0  0  0  0  0
    1.5000    2.5981    0.0000 O   0  0  0  0  0  0  0  0  0  0  0  0
  1  2  1  0
  2  3  2  0
  3  4  1  0
  4  5  2  0
  5  6  1  0
  6  7  2  0
  7  8  1  0
  8  9  2  0
  9 10  1  0
 10 11  1  0
 11 12  2  0
 12 13  1  0
 13 14  2  0
 14 15  1  0
 15 16  2  0
 15 17  1  0
 17 18  1  0
 18 19  2  0
 19 20  1  0
 20 21  2  0
 21 22  1  0
 22 23  1  0
 23 24  2  0
 24 25  1  0
 25 26  2  0
 26 27  1  0
 27 28  2  0
 14 29  1  0
 29 30  2  0
 30 31  1  0
 31 32  2  0
 32 33  1  0
 33 34  2  0
 34 35  1  0
 35 36  2  0
 35 37  1  0
 37 38  1  0
 38 39  2  0
 38 40  1  0
 40 41  2  0
 41 42  1  0
 42 43  2  0
 43 44  1  0
 44 45  2  0
 44 46  1  0
 46 47  1  0
 47 48  2  0
 48 49  1  0
 49 50  2  0
 50 51  1  0
 51 52  2  0
 43 53  1  0
 53 54  2  0
 34 55  1  0
 55 56  2  0
  5 57  1  0
 57 58  1  0
 58 59  2  0
 58  2  1  0
 10  6  1  0
 30 11  1  0
 55 31  1  0
 22 18  1  0
 28 23  1  0
 53 40  1  0
 52 47  1  0
M  END
>  <Title>  (37) 
idAASRgen10

$$$$

     RDKit          2D

 49 56  0  0  0  0  0  0  0  0999 V2000
   -0.2513  -15.4566    0.0000 C   0  0  0  0  0  0  0  0  0  0  0  0
    0.1098  -14.0007    0.0000 O   0  0  0  0  0  0  0  0  0  0  0  0
    1.5511  -13.5854    0.0000 C   0  0  0  0  0  0  0  0  0  0  0  0
    1.8024  -12.1066    0.0000 C   0  0  0  0  0  0  0  0  0  0  0  0
    3.1152  -11.3810    0.0000 C   0  0  0  0  0  0  0  0  0  0  0  0
    4.5011  -11.9551    0.0000 C   0  0  0  0  0  0  0  0  0  0  0  0
    5.6195  -10.9555    0.0000 C   0  0  0  0  0  0  0  0  0  0  0  0
    7.0856  -11.2729    0.0000 N   0  0  0  0  0  0  0  0  0  0  0  0
    7.8404   -9.9767    0.0000 N   0  0  0  0  0  0  0  0  0  0  0  0
    6.8409   -8.8582    0.0000 N   0  0  0  0  0  0  0  0  0  0  0  0
    5.4683   -9.4632    0.0000 N   0  0  0  0  0  0  0  0  0  0  0  0
    4.1721   -8.7083    0.0000 C   0  0  0  0  0  0  0  0  0  0  0  0
    2.9296   -9.5487    0.0000 C   0  0  0  0  0  0  0  0  0  0  0  0
    1.4979   -9.1012    0.0000 C   0  0  0  0  0  0  0  0  0  0  0  0
    0.9551   -7.7028    0.0000 C   0  0  0  0  0  0  0  0  0  0  0  0
   -0.5403   -7.5851    0.0000 N   0  0  0  0  0  0  0  0  0  0  0  0
   -1.5144   -8.7257    0.0000 N   0  0  0  0  0  0  0  0  0  0  0  0
   -2.9003   -8.1517    0.0000 N   0  0  0  0  0  0  0  0  0  0  0  0
   -2.7826   -6.6563    0.0000 N   0  0  0  0  0  0  0  0  0  0  0  0
   -1.3240   -6.3062    0.0000 C   0  0  0  0  0  0  0  0  0  0  0  0
   -0.7500   -4.9204    0.0000 C   0  0  0  0  0  0  0  0  0  0  0  0
    0.7500   -4.9204    0.0000 C   0  0  0  0  0  0  0  0  0  0  0  0
    1.8107   -3.8597    0.0000 C   0  0  0  0  0  0  0  0  0  0  0  0
    1.8107   -2.3597    0.0000 C   0  0  0  0  0  0  0  0  0  0  0  0
    3.1965   -1.7857    0.0000 N   0  0  0  0  0  0  0  0  0  0  0  0
    4.3865   -2.6988    0.0000 C   0  0  0  0  0  0  0  0  0  0  0  0
    5.7723   -2.1248    0.0000 C   0  0  0  0  0  0  0  0  0  0  0  0
    5.9681   -0.6376    0.0000 N   0  0  0  0  0  0  0  0  0  0  0  0
    4.7781    0.2755    0.0000 N   0  0  0  0  0  0  0  0  0  0  0  0
    3.3923   -0.2985    0.0000 N   0  0  0  0  0  0  0  0  0  0  0  0
    0.7500   -1.2990    0.0000 C   0  0  0  0  0  0  0  0  0  0  0  0
    1.5000    0.0000    0.0000 C   0  0  0  0  0  0  0  0  0  0  0  0
    0.7500    1.2990    0.0000 C   0  0  0  0  0  0  0  0  0  0  0  0
   -0.7500    1.2990    0.0000 C   0  0  0  0  0  0  0  0  0  0  0  0
   -1.5000    0.0000    0.0000 C   0  0  0  0  0  0  0  0  0  0  0  0
   -0.7500   -1.2990    0.0000 C   0  0  0  0  0  0  0  0  0  0  0  0
   -1.8107   -2.3597    0.0000 C   0  0  0  0  0  0  0  0  0  0  0  0
   -3.2372   -1.8962    0.0000 N   0  0  0  0  0  0  0  0  0  0  0  0
   -4.1189   -3.1097    0.0000 N   0  0  0  0  0  0  0  0  0  0  0  0
   -3.2372   -4.3232    0.0000 N   0  0  0  0  0  0  0  0  0  0  0  0
   -1.8107   -3.8597    0.0000 N   0  0  0  0  0  0  0  0  0  0  0  0
    1.7100   -6.4066    0.0000 C   0  0  0  0  0  0  0  0  0  0  0  0
    3.1940   -6.1886    0.0000 C   0  0  0  0  0  0  0  0  0  0  0  0
    4.2898   -7.2130    0.0000 C   0  0  0  0  0  0  0  0  0  0  0  0
    5.6881   -6.6702    0.0000 O   0  0  0  0  0  0  0  0  0  0  0  0
    4.9163  -13.3964    0.0000 N   0  0  0  0  0  0  0  0  0  0  0  0
    4.0483  -14.6198    0.0000 C   0  0  0  0  0  0  0  0  0  0  0  0
    4.7739  -15.9326    0.0000 O   0  0  0  0  0  0  0  0  0  0  0  0
    2.5507  -14.7039    0.0000 C   0  0  0  0  0  0  0  0  0  0  0  0
  1  2  1  0
  2  3  1  0
  3  4  2  0
  4  5  1  0
  5  6  2  0
  6  7  1  0
  7  8  2  0
  8  9  1  0
  9 10  2  0
 10 11  1  0
 11 12  1  0
 12 13  2  0
 13 14  1  0
 14 15  2  0
 15 16  1  0
 16 17  1  0
 17 18  2  0
 18 19  1  0
 19 20  2  0
 20 21  1  0
 21 22  2  0
 22 23  1  0
 23 24  2  0
 24 25  1  0
 25 26  1  0
 26 27  1  0
 27 28  2  0
 28 29  1  0
 29 30  2  0
 24 31  1  0
 31 32  2  0
 32 33  1  0
 33 34  2  0
 34 35  1  0
 35 36  2  0
 36 37  1  0
 37 38  2  0
 38 39  1  0
 39 40  2  0
 40 41  1  0
 15 42  1  0
 42 43  1  0
 43 44  1  0
 44 45  2  0
  6 46  1  0
 46 47  1  0
 47 48  2  0
 47 49  1  0
 49  3  1  0
 11  7  1  0
 44 12  1  0
 20 16  1  0
 41 21  1  0
 30 25  1  0
 36 31  1  0
 41 37  1  0
M  END
>  <Title>  (38) 
idAAAYgen10

$$$$

     RDKit          2D

 67 77  0  0  0  0  0  0  0  0999 V2000
    3.7500   -1.2990    0.0000 C   0  0  0  0  0  0  0  0  0  0  0  0
    3.0000    0.0000    0.0000 O   0  0  0  0  0  0  0  0  0  0  0  0
    1.5000    0.0000    0.0000 C   0  0  0  0  0  0  0  0  0  0  0  0
    0.7500   -1.2990    0.0000 C   0  0  0  0  0  0  0  0  0  0  0  0
   -0.7500   -1.2990    0.0000 C   0  0  0  0  0  0  0  0  0  0  0  0
   -1.5000    0.0000    0.0000 C   0  0  0  0  0  0  0  0  0  0  0  0
   -3.0000    0.0000    0.0000 C   0  0  0  0  0  0  0  0  0  0  0  0
   -3.8817   -1.2135    0.0000 N   0  0  0  0  0  0  0  0  0  0  0  0
   -5.3083   -0.7500    0.0000 N   0  0  0  0  0  0  0  0  0  0  0  0
   -5.3083    0.7500    0.0000 N   0  0  0  0  0  0  0  0  0  0  0  0
   -3.8817    1.2135    0.0000 N   0  0  0  0  0  0  0  0  0  0  0  0
   -3.4182    2.6401    0.0000 C   0  0  0  0  0  0  0  0  0  0  0  0
   -1.9509    2.9520    0.0000 C   0  0  0  0  0  0  0  0  0  0  0  0
   -1.4874    4.3786    0.0000 C   0  0  0  0  0  0  0  0  0  0  0  0
   -2.4911    5.4933    0.0000 C   0  0  0  0  0  0  0  0  0  0  0  0
   -2.0276    6.9199    0.0000 C   0  0  0  0  0  0  0  0  0  0  0  0
   -3.0313    8.0346    0.0000 O   0  0  0  0  0  0  0  0  0  0  0  0
   -0.5604    7.2317    0.0000 N   0  0  0  0  0  0  0  0  0  0  0  0
   -0.0968    8.6583    0.0000 C   0  0  0  0  0  0  0  0  0  0  0  0
   -0.9785    9.8718    0.0000 N   0  0  0  0  0  0  0  0  0  0  0  0
   -0.0968   11.0854    0.0000 N   0  0  0  0  0  0  0  0  0  0  0  0
    1.3298   10.6218    0.0000 N   0  0  0  0  0  0  0  0  0  0  0  0
    1.3298    9.1218    0.0000 N   0  0  0  0  0  0  0  0  0  0  0  0
    2.5433    8.2402    0.0000 C   0  0  0  0  0  0  0  0  0  0  0  0
    2.3865    6.7484    0.0000 C   0  0  0  0  0  0  0  0  0  0  0  0
    3.6000    5.8667    0.0000 C   0  0  0  0  0  0  0  0  0  0  0  0
    4.9703    6.4768    0.0000 C   0  0  0  0  0  0  0  0  0  0  0  0
    6.1839    5.5951    0.0000 C   0  0  0  0  0  0  0  0  0  0  0  0
    6.0271    4.1033    0.0000 C   0  0  0  0  0  0  0  0  0  0  0  0
    7.2406    3.2217    0.0000 C   0  0  0  0  0  0  0  0  0  0  0  0
    8.6109    3.8318    0.0000 C   0  0  0  0  0  0  0  0  0  0  0  0
    8.7677    5.3236    0.0000 C   0  0  0  0  0  0  0  0  0  0  0  0
    7.5542    6.2052    0.0000 C   0  0  0  0  0  0  0  0  0  0  0  0
    5.1271    7.9686    0.0000 C   0  0  0  0  0  0  0  0  0  0  0  0
    3.9136    8.8503    0.0000 C   0  0  0  0  0  0  0  0  0  0  0  0
   -3.9583    5.1814    0.0000 C   0  0  0  0  0  0  0  0  0  0  0  0
   -4.4218    3.7548    0.0000 C   0  0  0  0  0  0  0  0  0  0  0  0
   -5.8891    3.4430    0.0000 C   0  0  0  0  0  0  0  0  0  0  0  0
   -6.4992    2.0726    0.0000 N   0  0  0  0  0  0  0  0  0  0  0  0
   -7.9910    2.2294    0.0000 N   0  0  0  0  0  0  0  0  0  0  0  0
   -8.3028    3.6967    0.0000 N   0  0  0  0  0  0  0  0  0  0  0  0
   -7.0038    4.4467    0.0000 N   0  0  0  0  0  0  0  0  0  0  0  0
   -6.8470    5.9384    0.0000 C   0  0  0  0  0  0  0  0  0  0  0  0
   -5.5480    6.6884    0.0000 N   0  0  0  0  0  0  0  0  0  0  0  0
   -5.8598    8.1557    0.0000 N   0  0  0  0  0  0  0  0  0  0  0  0
   -7.3516    8.3125    0.0000 N   0  0  0  0  0  0  0  0  0  0  0  0
   -7.9617    6.9421    0.0000 N   0  0  0  0  0  0  0  0  0  0  0  0
   -9.4289    6.6303    0.0000 C   0  0  0  0  0  0  0  0  0  0  0  0
  -10.0390    5.2599    0.0000 C   0  0  0  0  0  0  0  0  0  0  0  0
  -11.5308    5.4167    0.0000 C   0  0  0  0  0  0  0  0  0  0  0  0
  -11.8427    6.8840    0.0000 C   0  0  0  0  0  0  0  0  0  0  0  0
  -13.2130    7.4941    0.0000 C   0  0  0  0  0  0  0  0  0  0  0  0
  -14.5120    6.7441    0.0000 N   0  0  0  0  0  0  0  0  0  0  0  0
  -15.6268    7.7478    0.0000 N   0  0  0  0  0  0  0  0  0  0  0  0
  -15.0167    9.1181    0.0000 N   0  0  0  0  0  0  0  0  0  0  0  0
  -13.5249    8.9613    0.0000 N   0  0  0  0  0  0  0  0  0  0  0  0
  -12.5212   10.0760    0.0000 C   0  0  0  0  0  0  0  0  0  0  0  0
  -11.0540    9.7641    0.0000 C   0  0  0  0  0  0  0  0  0  0  0  0
  -10.0503   10.8789    0.0000 C   0  0  0  0  0  0  0  0  0  0  0  0
  -10.5138   12.3054    0.0000 C   0  0  0  0  0  0  0  0  0  0  0  0
  -11.9810   12.6173    0.0000 C   0  0  0  0  0  0  0  0  0  0  0  0
  -12.9847   11.5026    0.0000 C   0  0  0  0  0  0  0  0  0  0  0  0
  -10.5437    7.6340    0.0000 C   0  0  0  0  0  0  0  0  0  0  0  0
  -10.3869    9.1257    0.0000 O   0  0  0  0  0  0  0  0  0  0  0  0
   -0.7500    1.2990    0.0000 N   0  0  0  0  0  0  0  0  0  0  0  0
    0.7500    1.2990    0.0000 C   0  0  0  0  0  0  0  0  0  0  0  0
    1.5000    2.5981    0.0000 O   0  0  0  0  0  0  0  0  0  0  0  0
  1  2  1  0
  2  3  1  0
  3  4  2  0
  4  5  1  0
  5  6  2  0
  6  7  1  0
  7  8  2  0
  8  9  1  0
  9 10  2  0
 10 11  1  0
 11 12  1  0
 12 13  2  0
 13 14  1  0
 14 15  2  0
 15 16  1  0
 16 17  2  0
 16 18  1  0
 18 19  1  0
 19 20  2  0
 20 21  1  0
 21 22  2  0
 22 23  1  0
 23 24  1  0
 24 25  2  0
 25 26  1  0
 26 27  2  0
 27 28  1  0
 28 29  2  0
 29 30  1  0
 30 31  2  0
 31 32  1  0
 32 33  2  0
 27 34  1  0
 34 35  2  0
 15 36  1  0
 36 37  2  0
 37 38  1  0
 38 39  2  0
 39 40  1  0
 40 41  2  0
 41 42  1  0
 42 43  1  0
 43 44  2  0
 44 45  1  0
 45 46  2  0
 46 47  1  0
 47 48  1  0
 48 49  2  0
 49 50  1  0
 50 51  2  0
 51 52  1  0
 52 53  2  0
 53 54  1  0
 54 55  2  0
 55 56  1  0
 56 57  1  0
 57 58  2  0
 58 59  1  0
 59 60  2  0
 60 61  1  0
 61 62  2  0
 51 63  1  0
 63 64  2  0
  6 65  1  0
 65 66  1  0
 66 67  2  0
 66  3  1  0
 11  7  1  0
 37 12  1  0
 42 38  1  0
 47 43  1  0
 63 48  1  0
 23 19  1  0
 35 24  1  0
 56 52  1  0
 62 57  1  0
 33 28  1  0
M  END
>  <Title>  (39) 
idABUGgen8

$$$$

     RDKit          2D

 45 50  0  0  0  0  0  0  0  0999 V2000
    3.0000    0.0000    0.0000 C   0  0  0  0  0  0  0  0  0  0  0  0
    1.5000    0.0000    0.0000 C   0  0  0  0  0  0  0  0  0  0  0  0
    0.7500   -1.2990    0.0000 C   0  0  0  0  0  0  0  0  0  0  0  0
   -0.7500   -1.2990    0.0000 C   0  0  0  0  0  0  0  0  0  0  0  0
   -1.5000    0.0000    0.0000 C   0  0  0  0  0  0  0  0  0  0  0  0
   -2.9832   -0.2236    0.0000 C   0  0  0  0  0  0  0  0  0  0  0  0
   -3.4254   -1.6569    0.0000 C   0  0  0  0  0  0  0  0  0  0  0  0
   -2.4051   -2.7565    0.0000 O   0  0  0  0  0  0  0  0  0  0  0  0
   -4.8878   -1.9907    0.0000 N   0  0  0  0  0  0  0  0  0  0  0  0
   -5.3299   -3.4241    0.0000 C   0  0  0  0  0  0  0  0  0  0  0  0
   -4.4302   -4.6243    0.0000 N   0  0  0  0  0  0  0  0  0  0  0  0
   -5.2936   -5.8508    0.0000 N   0  0  0  0  0  0  0  0  0  0  0  0
   -6.7270   -5.4087    0.0000 N   0  0  0  0  0  0  0  0  0  0  0  0
   -6.7494   -3.9089    0.0000 N   0  0  0  0  0  0  0  0  0  0  0  0
   -7.9760   -3.0455    0.0000 C   0  0  0  0  0  0  0  0  0  0  0  0
   -9.3955   -3.5303    0.0000 C   0  0  0  0  0  0  0  0  0  0  0  0
  -10.2952   -2.3301    0.0000 C   0  0  0  0  0  0  0  0  0  0  0  0
   -9.4318   -1.1035    0.0000 C   0  0  0  0  0  0  0  0  0  0  0  0
   -9.9166    0.3160    0.0000 C   0  0  0  0  0  0  0  0  0  0  0  0
  -11.3883    0.6059    0.0000 O   0  0  0  0  0  0  0  0  0  0  0  0
   -8.9297    1.4456    0.0000 N   0  0  0  0  0  0  0  0  0  0  0  0
   -9.4145    2.8651    0.0000 C   0  0  0  0  0  0  0  0  0  0  0  0
  -10.8862    3.1550    0.0000 O   0  0  0  0  0  0  0  0  0  0  0  0
   -8.4276    3.9947    0.0000 N   0  0  0  0  0  0  0  0  0  0  0  0
   -8.9124    5.4142    0.0000 C   0  0  0  0  0  0  0  0  0  0  0  0
  -10.3458    5.8563    0.0000 N   0  0  0  0  0  0  0  0  0  0  0  0
  -10.3682    7.3562    0.0000 N   0  0  0  0  0  0  0  0  0  0  0  0
   -8.9487    7.8410    0.0000 N   0  0  0  0  0  0  0  0  0  0  0  0
   -8.0490    6.6408    0.0000 N   0  0  0  0  0  0  0  0  0  0  0  0
   -6.5491    6.6632    0.0000 C   0  0  0  0  0  0  0  0  0  0  0  0
   -5.7798    5.3755    0.0000 C   0  0  0  0  0  0  0  0  0  0  0  0
   -4.2800    5.3980    0.0000 C   0  0  0  0  0  0  0  0  0  0  0  0
   -3.5495    6.7081    0.0000 C   0  0  0  0  0  0  0  0  0  0  0  0
   -4.3188    7.9958    0.0000 C   0  0  0  0  0  0  0  0  0  0  0  0
   -5.8187    7.9733    0.0000 C   0  0  0  0  0  0  0  0  0  0  0  0
   -7.9984   -1.5456    0.0000 C   0  0  0  0  0  0  0  0  0  0  0  0
   -6.7982   -0.6459    0.0000 O   0  0  0  0  0  0  0  0  0  0  0  0
   -4.0828    0.7967    0.0000 C   0  0  0  0  0  0  0  0  0  0  0  0
   -3.9707    2.2925    0.0000 C   0  0  0  0  0  0  0  0  0  0  0  0
   -2.7314    3.1375    0.0000 C   0  0  0  0  0  0  0  0  0  0  0  0
   -2.9549    4.6207    0.0000 C   0  0  0  0  0  0  0  0  0  0  0  0
   -1.2980    2.6953    0.0000 C   0  0  0  0  0  0  0  0  0  0  0  0
   -0.2778    3.7949    0.0000 O   0  0  0  0  0  0  0  0  0  0  0  0
   -0.7500    1.2990    0.0000 C   0  0  0  0  0  0  0  0  0  0  0  0
    0.7500    1.2990    0.0000 C   0  0  0  0  0  0  0  0  0  0  0  0
  1  2  1  0
  2  3  2  0
  3  4  1  0
  4  5  2  0
  5  6  1  0
  6  7  1  0
  7  8  2  0
  7  9  1  0
  9 10  1  0
 10 11  2  0
 11 12  1  0
 12 13  2  0
 13 14  1  0
 14 15  1  0
 15 16  2  0
 16 17  1  0
 17 18  2  0
 18 19  1  0
 19 20  2  0
 19 21  1  0
 21 22  1  0
 22 23  2  0
 22 24  1  0
 24 25  1  0
 25 26  2  0
 26 27  1  0
 27 28  2  0
 28 29  1  0
 29 30  1  0
 30 31  2  0
 31 32  1  0
 32 33  2  0
 33 34  1  0
 34 35  2  0
 18 36  1  0
 36 37  2  0
  6 38  2  0
 38 39  1  0
 39 40  2  0
 40 41  1  0
 40 42  1  0
 42 43  2  0
 42 44  1  0
 44 45  2  0
 45  2  1  0
 44  5  1  0
 14 10  1  0
 36 15  1  0
 29 25  1  0
 35 30  1  0
M  END
>  <Title>  (40) 
idABTZgen8

$$$$

     RDKit          2D

 59 66  0  0  0  0  0  0  0  0999 V2000
   -3.9205   -4.3214    0.0000 C   0  0  0  0  0  0  0  0  0  0  0  0
   -2.5242   -4.8694    0.0000 O   0  0  0  0  0  0  0  0  0  0  0  0
   -1.3515   -3.9342    0.0000 C   0  0  0  0  0  0  0  0  0  0  0  0
   -0.0000   -4.5850    0.0000 C   0  0  0  0  0  0  0  0  0  0  0  0
    1.3515   -3.9342    0.0000 C   0  0  0  0  0  0  0  0  0  0  0  0
    1.6852   -2.4718    0.0000 C   0  0  0  0  0  0  0  0  0  0  0  0
    3.1476   -2.1380    0.0000 C   0  0  0  0  0  0  0  0  0  0  0  0
    3.5898   -0.7046    0.0000 O   0  0  0  0  0  0  0  0  0  0  0  0
    4.1679   -3.2376    0.0000 N   0  0  0  0  0  0  0  0  0  0  0  0
    5.6303   -2.9038    0.0000 C   0  0  0  0  0  0  0  0  0  0  0  0
    6.2198   -1.5245    0.0000 N   0  0  0  0  0  0  0  0  0  0  0  0
    7.7138   -1.6590    0.0000 N   0  0  0  0  0  0  0  0  0  0  0  0
    8.0476   -3.1214    0.0000 N   0  0  0  0  0  0  0  0  0  0  0  0
    6.7599   -3.8907    0.0000 N   0  0  0  0  0  0  0  0  0  0  0  0
    6.6254   -5.3847    0.0000 C   0  0  0  0  0  0  0  0  0  0  0  0
    7.7550   -6.3716    0.0000 C   0  0  0  0  0  0  0  0  0  0  0  0
    7.1655   -7.7509    0.0000 C   0  0  0  0  0  0  0  0  0  0  0  0
    5.6715   -7.6164    0.0000 C   0  0  0  0  0  0  0  0  0  0  0  0
    4.6846   -8.7460    0.0000 C   0  0  0  0  0  0  0  0  0  0  0  0
    5.1694  -10.1655    0.0000 O   0  0  0  0  0  0  0  0  0  0  0  0
    3.2129   -8.4561    0.0000 N   0  0  0  0  0  0  0  0  0  0  0  0
    2.2260   -9.5857    0.0000 C   0  0  0  0  0  0  0  0  0  0  0  0
    2.7108  -11.0052    0.0000 O   0  0  0  0  0  0  0  0  0  0  0  0
    0.7543   -9.2959    0.0000 C   0  0  0  0  0  0  0  0  0  0  0  0
    0.1237   -7.9348    0.0000 N   0  0  0  0  0  0  0  0  0  0  0  0
   -1.3655   -8.1139    0.0000 N   0  0  0  0  0  0  0  0  0  0  0  0
   -1.6554   -9.5856    0.0000 N   0  0  0  0  0  0  0  0  0  0  0  0
   -0.3453  -10.3161    0.0000 N   0  0  0  0  0  0  0  0  0  0  0  0
   -0.1662  -11.8054    0.0000 C   0  0  0  0  0  0  0  0  0  0  0  0
    1.1439  -12.5359    0.0000 C   0  0  0  0  0  0  0  0  0  0  0  0
    0.8540  -14.0076    0.0000 C   0  0  0  0  0  0  0  0  0  0  0  0
   -0.6353  -14.1867    0.0000 C   0  0  0  0  0  0  0  0  0  0  0  0
   -1.3657  -15.4968    0.0000 C   0  0  0  0  0  0  0  0  0  0  0  0
   -2.8656  -15.5192    0.0000 C   0  0  0  0  0  0  0  0  0  0  0  0
   -3.5961  -16.8293    0.0000 C   0  0  0  0  0  0  0  0  0  0  0  0
   -2.8267  -18.1170    0.0000 C   0  0  0  0  0  0  0  0  0  0  0  0
   -1.3269  -18.0946    0.0000 C   0  0  0  0  0  0  0  0  0  0  0  0
   -0.5964  -16.7845    0.0000 C   0  0  0  0  0  0  0  0  0  0  0  0
   -1.2658  -12.8256    0.0000 C   0  0  0  0  0  0  0  0  0  0  0  0
   -2.7375  -12.5358    0.0000 O   0  0  0  0  0  0  0  0  0  0  0  0
    5.3378   -6.1540    0.0000 C   0  0  0  0  0  0  0  0  0  0  0  0
    3.9585   -5.5645    0.0000 O   0  0  0  0  0  0  0  0  0  0  0  0
    0.7500   -1.2990    0.0000 C   0  0  0  0  0  0  0  0  0  0  0  0
    1.5000    0.0000    0.0000 C   0  0  0  0  0  0  0  0  0  0  0  0
    0.7500    1.2990    0.0000 C   0  0  0  0  0  0  0  0  0  0  0  0
   -0.7500    1.2990    0.0000 C   0  0  0  0  0  0  0  0  0  0  0  0
   -1.5000    2.5981    0.0000 C   0  0  0  0  0  0  0  0  0  0  0  0
   -3.0000    2.5981    0.0000 O   0  0  0  0  0  0  0  0  0  0  0  0
   -0.7500    3.8971    0.0000 N   0  0  0  0  0  0  0  0  0  0  0  0
   -1.5000    5.1962    0.0000 C   0  0  0  0  0  0  0  0  0  0  0  0
   -0.7500    6.4952    0.0000 C   0  0  0  0  0  0  0  0  0  0  0  0
   -1.5000    7.7942    0.0000 C   0  0  0  0  0  0  0  0  0  0  0  0
   -3.0000    7.7942    0.0000 C   0  0  0  0  0  0  0  0  0  0  0  0
   -3.7500    6.4952    0.0000 C   0  0  0  0  0  0  0  0  0  0  0  0
   -3.0000    5.1962    0.0000 C   0  0  0  0  0  0  0  0  0  0  0  0
   -1.5000    0.0000    0.0000 C   0  0  0  0  0  0  0  0  0  0  0  0
   -0.7500   -1.2990    0.0000 C   0  0  0  0  0  0  0  0  0  0  0  0
   -1.6852   -2.4718    0.0000 C   0  0  0  0  0  0  0  0  0  0  0  0
   -3.1476   -2.1380    0.0000 O   0  0  0  0  0  0  0  0  0  0  0  0
  1  2  1  0
  2  3  1  0
  3  4  2  0
  4  5  1  0
  5  6  2  0
  6  7  1  0
  7  8  2  0
  7  9  1  0
  9 10  1  0
 10 11  2  0
 11 12  1  0
 12 13  2  0
 13 14  1  0
 14 15  1  0
 15 16  2  0
 16 17  1  0
 17 18  2  0
 18 19  1  0
 19 20  2  0
 19 21  1  0
 21 22  1  0
 22 23  2  0
 22 24  1  0
 24 25  2  0
 25 26  1  0
 26 27  2  0
 27 28  1  0
 28 29  1  0
 29 30  2  0
 30 31  1  0
 31 32  2  0
 32 33  1  0
 33 34  2  0
 34 35  1  0
 35 36  2  0
 36 37  1  0
 37 38  2  0
 32 39  1  0
 39 40  2  0
 18 41  1  0
 41 42  2  0
  6 43  1  0
 43 44  2  0
 44 45  1  0
 45 46  2  0
 46 47  1  0
 47 48  2  0
 47 49  1  0
 49 50  1  0
 50 51  2  0
 51 52  1  0
 52 53  2  0
 53 54  1  0
 54 55  2  0
 46 56  1  0
 56 57  2  0
 57 58  1  0
 58 59  2  0
 58  3  1  0
 14 10  1  0
 41 15  1  0
 57 43  1  0
 28 24  1  0
 39 29  1  0
 55 50  1  0
 38 33  1  0
M  END
>  <Title>  (41) 
idABOUgen7

$$$$

     RDKit          2D

 51 58  0  0  0  0  0  0  0  0999 V2000
    7.0348    8.9662    0.0000 C   0  0  0  0  0  0  0  0  0  0  0  0
    5.5348    8.9662    0.0000 C   0  0  0  0  0  0  0  0  0  0  0  0
    4.7848   10.2652    0.0000 C   0  0  0  0  0  0  0  0  0  0  0  0
    3.2848   10.2652    0.0000 C   0  0  0  0  0  0  0  0  0  0  0  0
    2.5348    8.9662    0.0000 C   0  0  0  0  0  0  0  0  0  0  0  0
    1.0348    8.9662    0.0000 C   0  0  0  0  0  0  0  0  0  0  0  0
    0.2848   10.2652    0.0000 O   0  0  0  0  0  0  0  0  0  0  0  0
    0.2848    7.6672    0.0000 N   0  0  0  0  0  0  0  0  0  0  0  0
   -1.2152    7.6672    0.0000 C   0  0  0  0  0  0  0  0  0  0  0  0
   -2.0969    8.8807    0.0000 N   0  0  0  0  0  0  0  0  0  0  0  0
   -3.5235    8.4172    0.0000 N   0  0  0  0  0  0  0  0  0  0  0  0
   -3.5235    6.9172    0.0000 N   0  0  0  0  0  0  0  0  0  0  0  0
   -2.0969    6.4536    0.0000 N   0  0  0  0  0  0  0  0  0  0  0  0
   -1.6334    5.0270    0.0000 C   0  0  0  0  0  0  0  0  0  0  0  0
   -0.1343    4.9747    0.0000 C   0  0  0  0  0  0  0  0  0  0  0  0
    0.9804    3.9710    0.0000 C   0  0  0  0  0  0  0  0  0  0  0  0
    1.1892    2.4856    0.0000 C   0  0  0  0  0  0  0  0  0  0  0  0
    2.6564    2.1737    0.0000 C   0  0  0  0  0  0  0  0  0  0  0  0
    3.7711    3.1774    0.0000 C   0  0  0  0  0  0  0  0  0  0  0  0
    5.0702    2.4274    0.0000 C   0  0  0  0  0  0  0  0  0  0  0  0
    4.7583    0.9602    0.0000 C   0  0  0  0  0  0  0  0  0  0  0  0
    5.7620   -0.1545    0.0000 C   0  0  0  0  0  0  0  0  0  0  0  0
    5.2985   -1.5811    0.0000 C   0  0  0  0  0  0  0  0  0  0  0  0
    6.3022   -2.6958    0.0000 C   0  0  0  0  0  0  0  0  0  0  0  0
    7.7694   -2.3839    0.0000 C   0  0  0  0  0  0  0  0  0  0  0  0
    8.2329   -0.9574    0.0000 C   0  0  0  0  0  0  0  0  0  0  0  0
    7.2292    0.1574    0.0000 C   0  0  0  0  0  0  0  0  0  0  0  0
    3.2665    0.8034    0.0000 C   0  0  0  0  0  0  0  0  0  0  0  0
    2.5165   -0.4956    0.0000 O   0  0  0  0  0  0  0  0  0  0  0  0
    0.3943    1.2135    0.0000 C   0  0  0  0  0  0  0  0  0  0  0  0
    1.2760    0.0000    0.0000 N   0  0  0  0  0  0  0  0  0  0  0  0
    0.3943   -1.2135    0.0000 N   0  0  0  0  0  0  0  0  0  0  0  0
   -1.0323   -0.7500    0.0000 N   0  0  0  0  0  0  0  0  0  0  0  0
   -1.0323    0.7500    0.0000 N   0  0  0  0  0  0  0  0  0  0  0  0
   -2.4231    1.3119    0.0000 C   0  0  0  0  0  0  0  0  0  0  0  0
   -3.8248    0.7779    0.0000 C   0  0  0  0  0  0  0  0  0  0  0  0
   -5.1163    1.5408    0.0000 C   0  0  0  0  0  0  0  0  0  0  0  0
   -5.3250    3.0262    0.0000 C   0  0  0  0  0  0  0  0  0  0  0  0
   -6.7539    3.4826    0.0000 C   0  0  0  0  0  0  0  0  0  0  0  0
   -7.0731    4.9482    0.0000 C   0  0  0  0  0  0  0  0  0  0  0  0
   -8.5020    5.4046    0.0000 C   0  0  0  0  0  0  0  0  0  0  0  0
   -9.6117    4.3954    0.0000 C   0  0  0  0  0  0  0  0  0  0  0  0
   -9.2925    2.9297    0.0000 C   0  0  0  0  0  0  0  0  0  0  0  0
   -7.8636    2.4733    0.0000 C   0  0  0  0  0  0  0  0  0  0  0  0
   -4.2938    4.1155    0.0000 C   0  0  0  0  0  0  0  0  0  0  0  0
   -2.8154    4.1036    0.0000 C   0  0  0  0  0  0  0  0  0  0  0  0
   -3.1273    2.6363    0.0000 C   0  0  0  0  0  0  0  0  0  0  0  0
   -4.6127    2.4276    0.0000 O   0  0  0  0  0  0  0  0  0  0  0  0
    3.2848    7.6672    0.0000 C   0  0  0  0  0  0  0  0  0  0  0  0
    2.5348    6.3681    0.0000 O   0  0  0  0  0  0  0  0  0  0  0  0
    4.7848    7.6672    0.0000 N   0  0  0  0  0  0  0  0  0  0  0  0
  1  2  1  0
  2  3  2  0
  3  4  1  0
  4  5  2  0
  5  6  1  0
  6  7  2  0
  6  8  1  0
  8  9  1  0
  9 10  2  0
 10 11  1  0
 11 12  2  0
 12 13  1  0
 13 14  1  0
 14 15  2  0
 15 16  1  0
 16 17  2  0
 17 18  1  0
 18 19  2  0
 19 20  1  0
 20 21  2  0
 21 22  1  0
 22 23  2  0
 23 24  1  0
 24 25  2  0
 25 26  1  0
 26 27  2  0
 21 28  1  0
 28 29  2  0
 17 30  1  0
 30 31  2  0
 31 32  1  0
 32 33  2  0
 33 34  1  0
 34 35  1  0
 35 36  2  0
 36 37  1  0
 37 38  2  0
 38 39  1  0
 39 40  2  0
 40 41  1  0
 41 42  2  0
 42 43  1  0
 43 44  2  0
 38 45  1  0
 45 46  2  0
 46 47  1  0
 47 48  2  0
  5 49  1  0
 49 50  2  0
 49 51  1  0
 51  2  1  0
 13  9  1  0
 46 14  1  0
 28 18  1  0
 34 30  1  0
 47 35  1  0
 27 22  1  0
 44 39  1  0
M  END
>  <Title>  (42) 
idABXRgen8

$$$$

     RDKit          2D

 59 68  0  0  0  0  0  0  0  0999 V2000
   -4.3291  -11.4757    0.0000 C   0  0  0  0  0  0  0  0  0  0  0  0
   -5.3392  -10.3668    0.0000 C   0  0  0  0  0  0  0  0  0  0  0  0
   -4.7784   -8.9756    0.0000 C   0  0  0  0  0  0  0  0  0  0  0  0
   -5.5164   -7.6697    0.0000 C   0  0  0  0  0  0  0  0  0  0  0  0
   -6.9975   -7.4325    0.0000 C   0  0  0  0  0  0  0  0  0  0  0  0
   -7.4264   -5.9951    0.0000 C   0  0  0  0  0  0  0  0  0  0  0  0
   -8.8414   -5.4972    0.0000 N   0  0  0  0  0  0  0  0  0  0  0  0
   -8.8051   -3.9977    0.0000 N   0  0  0  0  0  0  0  0  0  0  0  0
   -7.3678   -3.5688    0.0000 N   0  0  0  0  0  0  0  0  0  0  0  0
   -6.5157   -4.8032    0.0000 N   0  0  0  0  0  0  0  0  0  0  0  0
   -1.5591   -4.7975    0.0000 C   0  0  0  0  0  0  0  0  0  0  0  0
   -1.9479   -3.5867    0.0000 C   0  0  0  0  0  0  0  0  0  0  0  0
   -1.6835   -3.4675    0.0000 C   0  0  0  0  0  0  0  0  0  0  0  0
   -2.0782   -1.9961    0.0000 C   0  0  0  0  0  0  0  0  0  0  0  0
   -2.9303   -3.2306    0.0000 C   0  0  0  0  0  0  0  0  0  0  0  0
   -3.1111   -4.7197    0.0000 N   0  0  0  0  0  0  0  0  0  0  0  0
   -2.5792   -6.1222    0.0000 N   0  0  0  0  0  0  0  0  0  0  0  0
   -1.4564   -7.1169    0.0000 N   0  0  0  0  0  0  0  0  0  0  0  0
    0.0000   -7.4758    0.0000 N   0  0  0  0  0  0  0  0  0  0  0  0
    1.4564   -7.1169    0.0000 C   0  0  0  0  0  0  0  0  0  0  0  0
    2.5792   -6.1222    0.0000 N   0  0  0  0  0  0  0  0  0  0  0  0
    3.7487   -7.0615    0.0000 N   0  0  0  0  0  0  0  0  0  0  0  0
    5.0034   -6.2394    0.0000 N   0  0  0  0  0  0  0  0  0  0  0  0
    4.6093   -4.7921    0.0000 N   0  0  0  0  0  0  0  0  0  0  0  0
    3.1111   -4.7197    0.0000 C   0  0  0  0  0  0  0  0  0  0  0  0
    2.9303   -3.2306    0.0000 N   0  0  0  0  0  0  0  0  0  0  0  0
    4.3676   -2.8017    0.0000 N   0  0  0  0  0  0  0  0  0  0  0  0
    4.4039   -1.3021    0.0000 N   0  0  0  0  0  0  0  0  0  0  0  0
    2.9889   -0.8043    0.0000 N   0  0  0  0  0  0  0  0  0  0  0  0
    2.0782   -1.9961    0.0000 C   0  0  0  0  0  0  0  0  0  0  0  0
    0.7500   -1.2990    0.0000 C   0  0  0  0  0  0  0  0  0  0  0  0
    1.5000    0.0000    0.0000 N   0  0  0  0  0  0  0  0  0  0  0  0
    0.7500    1.2990    0.0000 C   0  0  0  0  0  0  0  0  0  0  0  0
   -0.7500    1.2990    0.0000 C   0  0  0  0  0  0  0  0  0  0  0  0
   -1.5000    0.0000    0.0000 C   0  0  0  0  0  0  0  0  0  0  0  0
   -0.7500   -1.2990    0.0000 C   0  0  0  0  0  0  0  0  0  0  0  0
    0.5692   -6.4777    0.0000 C   0  0  0  0  0  0  0  0  0  0  0  0
    0.1774   -6.6350    0.0000 C   0  0  0  0  0  0  0  0  0  0  0  0
   -0.7447   -5.6493    0.0000 C   0  0  0  0  0  0  0  0  0  0  0  0
   -3.1050   -9.7444    0.0000 C   0  0  0  0  0  0  0  0  0  0  0  0
   -4.5794  -10.0208    0.0000 C   0  0  0  0  0  0  0  0  0  0  0  0
   -5.0772  -11.4357    0.0000 C   0  0  0  0  0  0  0  0  0  0  0  0
   -4.1007  -12.5744    0.0000 C   0  0  0  0  0  0  0  0  0  0  0  0
   -2.6264  -12.2980    0.0000 C   0  0  0  0  0  0  0  0  0  0  0  0
   -2.1286  -10.8831    0.0000 C   0  0  0  0  0  0  0  0  0  0  0  0
   -0.9344   -5.8440    0.0000 C   0  0  0  0  0  0  0  0  0  0  0  0
   -1.6188   -4.6201    0.0000 C   0  0  0  0  0  0  0  0  0  0  0  0
    0.1808   -5.9868    0.0000 C   0  0  0  0  0  0  0  0  0  0  0  0
   -0.7679   -7.1487    0.0000 C   0  0  0  0  0  0  0  0  0  0  0  0
   -2.2484   -6.9081    0.0000 C   0  0  0  0  0  0  0  0  0  0  0  0
   -2.7803   -5.5055    0.0000 C   0  0  0  0  0  0  0  0  0  0  0  0
   -1.8317   -4.3436    0.0000 C   0  0  0  0  0  0  0  0  0  0  0  0
   -0.3511   -4.5843    0.0000 C   0  0  0  0  0  0  0  0  0  0  0  0
   -1.4739   -3.5896    0.0000 C   0  0  0  0  0  0  0  0  0  0  0  0
   -0.7768   -2.2614    0.0000 O   0  0  0  0  0  0  0  0  0  0  0  0
   -8.1064   -8.4426    0.0000 N   0  0  0  0  0  0  0  0  0  0  0  0
   -8.0081   -9.9393    0.0000 C   0  0  0  0  0  0  0  0  0  0  0  0
   -9.3140  -10.6774    0.0000 O   0  0  0  0  0  0  0  0  0  0  0  0
   -6.7766  -10.7957    0.0000 N   0  0  0  0  0  0  0  0  0  0  0  0
  1  2  1  0
  2  3  2  0
  3  4  1  0
  4  5  2  0
  5  6  1  0
  6  7  2  0
  7  8  1  0
  8  9  2  0
  9 10  1  0
 10 11  1  0
 11 12  2  0
 12 13  1  0
 13 14  2  0
 14 15  1  0
 15 16  2  0
 16 17  1  0
 17 18  2  0
 18 19  1  0
 19 20  1  0
 20 21  1  0
 21 22  1  0
 22 23  2  0
 23 24  1  0
 24 25  2  0
 25 26  1  0
 26 27  1  0
 27 28  2  0
 28 29  1  0
 29 30  2  0
 30 31  1  0
 31 32  2  0
 32 33  1  0
 33 34  2  0
 34 35  1  0
 35 36  2  0
 20 37  2  0
 37 38  1  0
 38 39  2  0
 39 40  1  0
 40 41  2  0
 41 42  1  0
 42 43  2  0
 43 44  1  0
 44 45  2  0
 39 46  1  0
 46 47  2  0
 19 48  1  0
 48 49  2  0
 49 50  1  0
 50 51  2  0
 51 52  1  0
 52 53  2  0
 53 54  1  0
 54 55  2  0
  5 56  1  0
 56 57  1  0
 57 58  2  0
 57 59  1  0
 59  2  1  0
 10  6  1  0
 47 11  1  0
 53 48  1  0
 36 14  1  0
 45 40  1  0
 54 15  1  0
 25 21  1  0
 30 26  1  0
 36 31  1  0
M  END
>  <Title>  (43) 
idAACTgen8

$$$$

     RDKit          2D

 58 65  0  0  0  0  0  0  0  0999 V2000
    3.0000    0.0000    0.0000 C   0  0  0  0  0  0  0  0  0  0  0  0
    1.5000    0.0000    0.0000 C   0  0  0  0  0  0  0  0  0  0  0  0
    0.7500   -1.2990    0.0000 C   0  0  0  0  0  0  0  0  0  0  0  0
   -0.7500   -1.2990    0.0000 C   0  0  0  0  0  0  0  0  0  0  0  0
   -1.5000    0.0000    0.0000 C   0  0  0  0  0  0  0  0  0  0  0  0
   -3.0000    0.0000    0.0000 C   0  0  0  0  0  0  0  0  0  0  0  0
   -3.8817   -1.2135    0.0000 N   0  0  0  0  0  0  0  0  0  0  0  0
   -5.3083   -0.7500    0.0000 N   0  0  0  0  0  0  0  0  0  0  0  0
   -5.3083    0.7500    0.0000 N   0  0  0  0  0  0  0  0  0  0  0  0
   -3.8817    1.2135    0.0000 N   0  0  0  0  0  0  0  0  0  0  0  0
   -3.4182    2.6401    0.0000 C   0  0  0  0  0  0  0  0  0  0  0  0
   -1.9509    2.9520    0.0000 C   0  0  0  0  0  0  0  0  0  0  0  0
   -1.4874    4.3786    0.0000 C   0  0  0  0  0  0  0  0  0  0  0  0
   -2.4911    5.4933    0.0000 C   0  0  0  0  0  0  0  0  0  0  0  0
   -2.0276    6.9199    0.0000 C   0  0  0  0  0  0  0  0  0  0  0  0
   -3.0313    8.0346    0.0000 O   0  0  0  0  0  0  0  0  0  0  0  0
   -0.5604    7.2317    0.0000 N   0  0  0  0  0  0  0  0  0  0  0  0
   -0.0968    8.6583    0.0000 C   0  0  0  0  0  0  0  0  0  0  0  0
   -1.1005    9.7730    0.0000 O   0  0  0  0  0  0  0  0  0  0  0  0
    1.3704    8.9702    0.0000 C   0  0  0  0  0  0  0  0  0  0  0  0
    2.3741    7.8555    0.0000 C   0  0  0  0  0  0  0  0  0  0  0  0
    3.8413    8.1673    0.0000 C   0  0  0  0  0  0  0  0  0  0  0  0
    4.3048    9.5939    0.0000 C   0  0  0  0  0  0  0  0  0  0  0  0
    3.3011   10.7086    0.0000 C   0  0  0  0  0  0  0  0  0  0  0  0
    1.8339   10.3968    0.0000 C   0  0  0  0  0  0  0  0  0  0  0  0
   -3.9583    5.1814    0.0000 C   0  0  0  0  0  0  0  0  0  0  0  0
   -4.4218    3.7548    0.0000 C   0  0  0  0  0  0  0  0  0  0  0  0
   -5.8891    3.4430    0.0000 C   0  0  0  0  0  0  0  0  0  0  0  0
   -6.3526    2.0164    0.0000 C   0  0  0  0  0  0  0  0  0  0  0  0
   -7.8198    1.7045    0.0000 C   0  0  0  0  0  0  0  0  0  0  0  0
   -8.8235    2.8192    0.0000 C   0  0  0  0  0  0  0  0  0  0  0  0
  -10.2907    2.5074    0.0000 C   0  0  0  0  0  0  0  0  0  0  0  0
  -11.4055    3.5111    0.0000 N   0  0  0  0  0  0  0  0  0  0  0  0
  -12.7045    2.7611    0.0000 N   0  0  0  0  0  0  0  0  0  0  0  0
  -12.3926    1.2938    0.0000 N   0  0  0  0  0  0  0  0  0  0  0  0
  -10.9008    1.1370    0.0000 N   0  0  0  0  0  0  0  0  0  0  0  0
  -10.1508   -0.1620    0.0000 C   0  0  0  0  0  0  0  0  0  0  0  0
   -8.6508   -0.1620    0.0000 C   0  0  0  0  0  0  0  0  0  0  0  0
   -7.9008   -1.4610    0.0000 C   0  0  0  0  0  0  0  0  0  0  0  0
   -8.6508   -2.7601    0.0000 C   0  0  0  0  0  0  0  0  0  0  0  0
  -10.1508   -2.7601    0.0000 C   0  0  0  0  0  0  0  0  0  0  0  0
  -10.9008   -1.4610    0.0000 C   0  0  0  0  0  0  0  0  0  0  0  0
   -8.3600    4.2458    0.0000 C   0  0  0  0  0  0  0  0  0  0  0  0
   -6.8928    4.5577    0.0000 C   0  0  0  0  0  0  0  0  0  0  0  0
   -6.4292    5.9843    0.0000 C   0  0  0  0  0  0  0  0  0  0  0  0
   -4.9620    6.2961    0.0000 C   0  0  0  0  0  0  0  0  0  0  0  0
   -4.4985    7.7227    0.0000 C   0  0  0  0  0  0  0  0  0  0  0  0
   -5.5022    8.8374    0.0000 C   0  0  0  0  0  0  0  0  0  0  0  0
   -5.0387   10.2640    0.0000 C   0  0  0  0  0  0  0  0  0  0  0  0
   -6.0424   11.3787    0.0000 O   0  0  0  0  0  0  0  0  0  0  0  0
   -3.5714   10.5759    0.0000 N   0  0  0  0  0  0  0  0  0  0  0  0
   -3.1079   12.0025    0.0000 O   0  0  0  0  0  0  0  0  0  0  0  0
   -6.9694    8.5256    0.0000 N   0  0  0  0  0  0  0  0  0  0  0  0
   -7.4329    7.0990    0.0000 C   0  0  0  0  0  0  0  0  0  0  0  0
   -8.9002    6.7871    0.0000 O   0  0  0  0  0  0  0  0  0  0  0  0
   -0.7500    1.2990    0.0000 N   0  0  0  0  0  0  0  0  0  0  0  0
    0.7500    1.2990    0.0000 C   0  0  0  0  0  0  0  0  0  0  0  0
    1.5000    2.5981    0.0000 O   0  0  0  0  0  0  0  0  0  0  0  0
  1  2  1  0
  2  3  2  0
  3  4  1  0
  4  5  2  0
  5  6  1  0
  6  7  2  0
  7  8  1  0
  8  9  2  0
  9 10  1  0
 10 11  1  0
 11 12  2  0
 12 13  1  0
 13 14  2  0
 14 15  1  0
 15 16  2  0
 15 17  1  0
 17 18  1  0
 18 19  2  0
 18 20  1  0
 20 21  2  0
 21 22  1  0
 22 23  2  0
 23 24  1  0
 24 25  2  0
 14 26  1  0
 26 27  2  0
 27 28  1  0
 28 29  2  0
 29 30  1  0
 30 31  2  0
 31 32  1  0
 32 33  2  0
 33 34  1  0
 34 35  2  0
 35 36  1  0
 36 37  1  0
 37 38  2  0
 38 39  1  0
 39 40  2  0
 40 41  1  0
 41 42  2  0
 31 43  1  0
 43 44  2  0
 44 45  1  0
 45 46  2  0
 46 47  1  0
 47 48  2  0
 48 49  1  0
 49 50  2  0
 49 51  1  0
 51 52  1  0
 48 53  1  0
 53 54  1  0
 54 55  2  0
  5 56  1  0
 56 57  1  0
 57 58  2  0
 57  2  1  0
 10  6  1  0
 27 11  1  0
 44 28  1  0
 54 45  1  0
 25 20  1  0
 36 32  1  0
 42 37  1  0
M  END
>  <Title>  (44) 
idACBOgen10

$$$$

     RDKit          2D

 44 50  0  0  0  0  0  0  0  0999 V2000
    1.8450  -12.2429    0.0000 C   0  0  0  0  0  0  0  0  0  0  0  0
    1.5524  -10.7717    0.0000 C   0  0  0  0  0  0  0  0  0  0  0  0
    0.0628  -10.5954    0.0000 C   0  0  0  0  0  0  0  0  0  0  0  0
   -1.0387   -9.5772    0.0000 C   0  0  0  0  0  0  0  0  0  0  0  0
   -2.1358   -8.2660    0.0000 C   0  0  0  0  0  0  0  0  0  0  0  0
   -0.7500   -8.8400    0.0000 C   0  0  0  0  0  0  0  0  0  0  0  0
    0.7500   -8.8400    0.0000 C   0  0  0  0  0  0  0  0  0  0  0  0
    2.1358   -8.2660    0.0000 C   0  0  0  0  0  0  0  0  0  0  0  0
    3.1965   -7.2054    0.0000 C   0  0  0  0  0  0  0  0  0  0  0  0
    3.4891   -8.6765    0.0000 C   0  0  0  0  0  0  0  0  0  0  0  0
    4.9787   -8.8528    0.0000 O   0  0  0  0  0  0  0  0  0  0  0  0
    2.8611  -10.0388    0.0000 N   0  0  0  0  0  0  0  0  0  0  0  0
    3.7705   -5.8195    0.0000 C   0  0  0  0  0  0  0  0  0  0  0  0
    5.1971   -6.2831    0.0000 N   0  0  0  0  0  0  0  0  0  0  0  0
    6.0788   -5.0695    0.0000 N   0  0  0  0  0  0  0  0  0  0  0  0
    5.1971   -3.8560    0.0000 N   0  0  0  0  0  0  0  0  0  0  0  0
    3.7705   -4.3195    0.0000 N   0  0  0  0  0  0  0  0  0  0  0  0
    3.1965   -2.9337    0.0000 C   0  0  0  0  0  0  0  0  0  0  0  0
    4.5330   -2.2527    0.0000 C   0  0  0  0  0  0  0  0  0  0  0  0
    4.2983   -0.7712    0.0000 C   0  0  0  0  0  0  0  0  0  0  0  0
    2.8168   -0.5366    0.0000 C   0  0  0  0  0  0  0  0  0  0  0  0
    2.1358   -1.8731    0.0000 C   0  0  0  0  0  0  0  0  0  0  0  0
    0.7500   -1.2990    0.0000 C   0  0  0  0  0  0  0  0  0  0  0  0
    1.5000    0.0000    0.0000 C   0  0  0  0  0  0  0  0  0  0  0  0
    0.7500    1.2990    0.0000 C   0  0  0  0  0  0  0  0  0  0  0  0
   -0.7500    1.2990    0.0000 C   0  0  0  0  0  0  0  0  0  0  0  0
   -1.5000    0.0000    0.0000 C   0  0  0  0  0  0  0  0  0  0  0  0
   -0.7500   -1.2990    0.0000 C   0  0  0  0  0  0  0  0  0  0  0  0
   -2.1358   -1.8731    0.0000 C   0  0  0  0  0  0  0  0  0  0  0  0
   -3.1965   -2.9337    0.0000 C   0  0  0  0  0  0  0  0  0  0  0  0
   -3.7705   -4.3195    0.0000 C   0  0  0  0  0  0  0  0  0  0  0  0
   -3.7705   -5.8195    0.0000 C   0  0  0  0  0  0  0  0  0  0  0  0
   -5.2349   -5.4949    0.0000 C   0  0  0  0  0  0  0  0  0  0  0  0
   -6.0409   -6.7600    0.0000 O   0  0  0  0  0  0  0  0  0  0  0  0
   -6.1481   -4.3049    0.0000 N   0  0  0  0  0  0  0  0  0  0  0  0
   -6.0827   -2.8063    0.0000 C   0  0  0  0  0  0  0  0  0  0  0  0
   -7.4476   -2.1842    0.0000 N   0  0  0  0  0  0  0  0  0  0  0  0
   -7.2778   -0.6939    0.0000 N   0  0  0  0  0  0  0  0  0  0  0  0
   -5.8079   -0.3948    0.0000 N   0  0  0  0  0  0  0  0  0  0  0  0
   -5.0693   -1.7004    0.0000 N   0  0  0  0  0  0  0  0  0  0  0  0
   -3.5821   -1.5046    0.0000 C   0  0  0  0  0  0  0  0  0  0  0  0
   -3.2574   -0.0401    0.0000 O   0  0  0  0  0  0  0  0  0  0  0  0
   -3.1965   -7.2054    0.0000 C   0  0  0  0  0  0  0  0  0  0  0  0
   -4.4437   -8.0387    0.0000 O   0  0  0  0  0  0  0  0  0  0  0  0
  1  2  1  0
  2  3  2  0
  3  4  1  0
  4  5  2  0
  5  6  1  0
  6  7  2  0
  7  8  1  0
  8  9  2  0
  9 10  1  0
 10 11  2  0
 10 12  1  0
  9 13  1  0
 13 14  2  0
 14 15  1  0
 15 16  2  0
 16 17  1  0
 17 18  1  0
 18 19  2  0
 19 20  1  0
 20 21  2  0
 21 22  1  0
 22 23  1  0
 23 24  2  0
 24 25  1  0
 25 26  2  0
 26 27  1  0
 27 28  2  0
 28 29  1  0
 29 30  2  0
 30 31  1  0
 31 32  2  0
 32 33  1  0
 33 34  2  0
 33 35  1  0
 35 36  1  0
 36 37  2  0
 37 38  1  0
 38 39  2  0
 39 40  1  0
 40 41  1  0
 41 42  2  0
 32 43  1  0
 43 44  2  0
 12  2  1  0
 17 13  1  0
 22 18  1  0
 28 23  1  0
 41 29  1  0
 43  5  1  0
 40 36  1  0
M  END
>  <Title>  (45) 
idACMSgen9

$$$$

     RDKit          2D

 40 45  0  0  0  0  0  0  0  0999 V2000
    9.1405   -3.7127    0.0000 C   0  0  0  0  0  0  0  0  0  0  0  0
    8.3142   -2.4608    0.0000 C   0  0  0  0  0  0  0  0  0  0  0  0
    8.9851   -1.1193    0.0000 C   0  0  0  0  0  0  0  0  0  0  0  0
    8.1588    0.1326    0.0000 C   0  0  0  0  0  0  0  0  0  0  0  0
    6.6615    0.0429    0.0000 C   0  0  0  0  0  0  0  0  0  0  0  0
    5.8351    1.2947    0.0000 C   0  0  0  0  0  0  0  0  0  0  0  0
    6.5061    2.6363    0.0000 O   0  0  0  0  0  0  0  0  0  0  0  0
    4.3378    1.2050    0.0000 N   0  0  0  0  0  0  0  0  0  0  0  0
    3.5115    2.4569    0.0000 C   0  0  0  0  0  0  0  0  0  0  0  0
    4.0385    3.8613    0.0000 N   0  0  0  0  0  0  0  0  0  0  0  0
    2.8658    4.7965    0.0000 N   0  0  0  0  0  0  0  0  0  0  0  0
    1.6139    3.9701    0.0000 N   0  0  0  0  0  0  0  0  0  0  0  0
    2.0130    2.5242    0.0000 N   0  0  0  0  0  0  0  0  0  0  0  0
    1.0777    1.3515    0.0000 C   0  0  0  0  0  0  0  0  0  0  0  0
    1.7286    0.0000    0.0000 C   0  0  0  0  0  0  0  0  0  0  0  0
    1.0777   -1.3515    0.0000 C   0  0  0  0  0  0  0  0  0  0  0  0
   -0.3846   -1.6852    0.0000 N   0  0  0  0  0  0  0  0  0  0  0  0
   -1.5574   -0.7500    0.0000 N   0  0  0  0  0  0  0  0  0  0  0  0
   -1.5574    0.7500    0.0000 N   0  0  0  0  0  0  0  0  0  0  0  0
   -0.3846    1.6852    0.0000 N   0  0  0  0  0  0  0  0  0  0  0  0
   -0.7184    3.1476    0.0000 C   0  0  0  0  0  0  0  0  0  0  0  0
    0.3812    4.1679    0.0000 C   0  0  0  0  0  0  0  0  0  0  0  0
    0.0474    5.6303    0.0000 C   0  0  0  0  0  0  0  0  0  0  0  0
   -1.3860    6.0724    0.0000 C   0  0  0  0  0  0  0  0  0  0  0  0
   -1.7198    7.5348    0.0000 C   0  0  0  0  0  0  0  0  0  0  0  0
   -3.0991    8.1243    0.0000 C   0  0  0  0  0  0  0  0  0  0  0  0
   -2.9646    9.6183    0.0000 C   0  0  0  0  0  0  0  0  0  0  0  0
   -1.5022    9.9521    0.0000 C   0  0  0  0  0  0  0  0  0  0  0  0
   -0.7329    8.6644    0.0000 N   0  0  0  0  0  0  0  0  0  0  0  0
    0.7611    8.5300    0.0000 C   0  0  0  0  0  0  0  0  0  0  0  0
    1.3916    7.1689    0.0000 C   0  0  0  0  0  0  0  0  0  0  0  0
    2.8856    7.0345    0.0000 C   0  0  0  0  0  0  0  0  0  0  0  0
    3.7490    8.2610    0.0000 C   0  0  0  0  0  0  0  0  0  0  0  0
    3.1185    9.6221    0.0000 C   0  0  0  0  0  0  0  0  0  0  0  0
    1.6245    9.7565    0.0000 C   0  0  0  0  0  0  0  0  0  0  0  0
   -2.4856    5.0522    0.0000 C   0  0  0  0  0  0  0  0  0  0  0  0
   -2.1518    3.5898    0.0000 C   0  0  0  0  0  0  0  0  0  0  0  0
    5.9905   -1.2987    0.0000 C   0  0  0  0  0  0  0  0  0  0  0  0
    4.4932   -1.3884    0.0000 O   0  0  0  0  0  0  0  0  0  0  0  0
    6.8169   -2.5505    0.0000 N   0  0  0  0  0  0  0  0  0  0  0  0
  1  2  1  0
  2  3  2  0
  3  4  1  0
  4  5  2  0
  5  6  1  0
  6  7  2  0
  6  8  1  0
  8  9  1  0
  9 10  2  0
 10 11  1  0
 11 12  2  0
 12 13  1  0
 13 14  1  0
 14 15  2  0
 15 16  1  0
 16 17  2  0
 17 18  1  0
 18 19  2  0
 19 20  1  0
 20 21  1  0
 21 22  2  0
 22 23  1  0
 23 24  2  0
 24 25  1  0
 25 26  2  0
 26 27  1  0
 27 28  2  0
 28 29  1  0
 29 30  1  0
 30 31  2  0
 31 32  1  0
 32 33  2  0
 33 34  1  0
 34 35  2  0
 24 36  1  0
 36 37  2  0
  5 38  1  0
 38 39  2  0
 38 40  1  0
 40  2  1  0
 13  9  1  0
 20 14  1  0
 37 21  1  0
 29 25  1  0
 35 30  1  0
M  END
>  <Title>  (46) 
idACJSgen9

$$$$

     RDKit          2D

 44 50  0  0  0  0  0  0  0  0999 V2000
   -8.9389   14.1845    0.0000 C   0  0  0  0  0  0  0  0  0  0  0  0
   -7.7254   13.3028    0.0000 C   0  0  0  0  0  0  0  0  0  0  0  0
   -6.3550   13.9130    0.0000 C   0  0  0  0  0  0  0  0  0  0  0  0
   -5.1415   13.0313    0.0000 C   0  0  0  0  0  0  0  0  0  0  0  0
   -5.2983   11.5395    0.0000 C   0  0  0  0  0  0  0  0  0  0  0  0
   -4.0848   10.6578    0.0000 C   0  0  0  0  0  0  0  0  0  0  0  0
   -2.7145   11.2679    0.0000 O   0  0  0  0  0  0  0  0  0  0  0  0
   -4.2416    9.1660    0.0000 N   0  0  0  0  0  0  0  0  0  0  0  0
   -3.0280    8.2844    0.0000 C   0  0  0  0  0  0  0  0  0  0  0  0
   -1.6015    8.7479    0.0000 N   0  0  0  0  0  0  0  0  0  0  0  0
   -0.7198    7.5344    0.0000 N   0  0  0  0  0  0  0  0  0  0  0  0
   -1.6015    6.3208    0.0000 N   0  0  0  0  0  0  0  0  0  0  0  0
   -3.0280    6.7844    0.0000 N   0  0  0  0  0  0  0  0  0  0  0  0
   -4.2416    5.9027    0.0000 C   0  0  0  0  0  0  0  0  0  0  0  0
   -5.6682    6.3662    0.0000 C   0  0  0  0  0  0  0  0  0  0  0  0
   -6.5498    5.1527    0.0000 C   0  0  0  0  0  0  0  0  0  0  0  0
   -5.6682    3.9391    0.0000 N   0  0  0  0  0  0  0  0  0  0  0  0
   -4.2416    4.4027    0.0000 N   0  0  0  0  0  0  0  0  0  0  0  0
   -3.0280    3.5210    0.0000 C   0  0  0  0  0  0  0  0  0  0  0  0
   -1.6015    3.9845    0.0000 C   0  0  0  0  0  0  0  0  0  0  0  0
   -0.7198    2.7710    0.0000 C   0  0  0  0  0  0  0  0  0  0  0  0
   -1.6015    1.5575    0.0000 C   0  0  0  0  0  0  0  0  0  0  0  0
   -1.1379    0.1309    0.0000 C   0  0  0  0  0  0  0  0  0  0  0  0
    0.2887   -0.3326    0.0000 C   0  0  0  0  0  0  0  0  0  0  0  0
    0.2887   -1.8326    0.0000 C   0  0  0  0  0  0  0  0  0  0  0  0
   -1.1379   -2.2962    0.0000 C   0  0  0  0  0  0  0  0  0  0  0  0
   -2.0196   -1.0826    0.0000 C   0  0  0  0  0  0  0  0  0  0  0  0
   -3.5196   -1.0826    0.0000 C   0  0  0  0  0  0  0  0  0  0  0  0
   -4.2696    0.2164    0.0000 C   0  0  0  0  0  0  0  0  0  0  0  0
   -5.7696    0.2164    0.0000 C   0  0  0  0  0  0  0  0  0  0  0  0
   -6.5196   -1.0826    0.0000 C   0  0  0  0  0  0  0  0  0  0  0  0
   -5.7696   -2.3817    0.0000 C   0  0  0  0  0  0  0  0  0  0  0  0
   -4.2696   -2.3817    0.0000 C   0  0  0  0  0  0  0  0  0  0  0  0
   -3.5196   -3.6807    0.0000 C   0  0  0  0  0  0  0  0  0  0  0  0
   -4.2696   -4.9798    0.0000 C   0  0  0  0  0  0  0  0  0  0  0  0
   -3.5196   -6.2788    0.0000 C   0  0  0  0  0  0  0  0  0  0  0  0
   -2.0196   -6.2788    0.0000 C   0  0  0  0  0  0  0  0  0  0  0  0
   -1.2696   -4.9798    0.0000 C   0  0  0  0  0  0  0  0  0  0  0  0
   -2.0196   -3.6807    0.0000 C   0  0  0  0  0  0  0  0  0  0  0  0
   -3.0280    2.0210    0.0000 C   0  0  0  0  0  0  0  0  0  0  0  0
   -4.2416    1.1393    0.0000 O   0  0  0  0  0  0  0  0  0  0  0  0
   -6.6686   10.9294    0.0000 C   0  0  0  0  0  0  0  0  0  0  0  0
   -6.8254    9.4376    0.0000 O   0  0  0  0  0  0  0  0  0  0  0  0
   -7.8821   11.8111    0.0000 N   0  0  0  0  0  0  0  0  0  0  0  0
  1  2  1  0
  2  3  2  0
  3  4  1  0
  4  5  2  0
  5  6  1  0
  6  7  2  0
  6  8  1  0
  8  9  1  0
  9 10  2  0
 10 11  1  0
 11 12  2  0
 12 13  1  0
 13 14  1  0
 14 15  2  0
 15 16  1  0
 16 17  2  0
 17 18  1  0
 18 19  1  0
 19 20  2  0
 20 21  1  0
 21 22  2  0
 22 23  1  0
 23 24  2  0
 24 25  1  0
 25 26  2  0
 26 27  1  0
 27 28  1  0
 28 29  2  0
 29 30  1  0
 30 31  2  0
 31 32  1  0
 32 33  2  0
 33 34  1  0
 34 35  2  0
 35 36  1  0
 36 37  2  0
 37 38  1  0
 38 39  2  0
 22 40  1  0
 40 41  2  0
  5 42  1  0
 42 43  2  0
 42 44  1  0
 44  2  1  0
 13  9  1  0
 18 14  1  0
 40 19  1  0
 27 23  1  0
 33 28  1  0
 39 34  1  0
M  END
>  <Title>  (47) 
idAACVgen9

$$$$

     RDKit          2D

 40 45  0  0  0  0  0  0  0  0999 V2000
    3.0000    0.0000    0.0000 C   0  0  0  0  0  0  0  0  0  0  0  0
    1.5000    0.0000    0.0000 C   0  0  0  0  0  0  0  0  0  0  0  0
    0.7500   -1.2990    0.0000 C   0  0  0  0  0  0  0  0  0  0  0  0
   -0.7500   -1.2990    0.0000 C   0  0  0  0  0  0  0  0  0  0  0  0
   -1.5000    0.0000    0.0000 C   0  0  0  0  0  0  0  0  0  0  0  0
   -3.0000    0.0000    0.0000 C   0  0  0  0  0  0  0  0  0  0  0  0
   -3.8817   -1.2135    0.0000 N   0  0  0  0  0  0  0  0  0  0  0  0
   -5.3083   -0.7500    0.0000 N   0  0  0  0  0  0  0  0  0  0  0  0
   -5.3083    0.7500    0.0000 N   0  0  0  0  0  0  0  0  0  0  0  0
   -3.8817    1.2135    0.0000 N   0  0  0  0  0  0  0  0  0  0  0  0
   -3.4182    2.6401    0.0000 C   0  0  0  0  0  0  0  0  0  0  0  0
   -1.9509    2.9520    0.0000 C   0  0  0  0  0  0  0  0  0  0  0  0
   -1.4874    4.3786    0.0000 C   0  0  0  0  0  0  0  0  0  0  0  0
   -2.4911    5.4933    0.0000 C   0  0  0  0  0  0  0  0  0  0  0  0
   -3.9583    5.1814    0.0000 C   0  0  0  0  0  0  0  0  0  0  0  0
   -4.4218    3.7548    0.0000 C   0  0  0  0  0  0  0  0  0  0  0  0
   -5.8891    3.4430    0.0000 C   0  0  0  0  0  0  0  0  0  0  0  0
   -6.8928    4.5577    0.0000 C   0  0  0  0  0  0  0  0  0  0  0  0
   -8.3600    4.2458    0.0000 C   0  0  0  0  0  0  0  0  0  0  0  0
   -8.8235    2.8192    0.0000 C   0  0  0  0  0  0  0  0  0  0  0  0
  -10.2907    2.5074    0.0000 C   0  0  0  0  0  0  0  0  0  0  0  0
  -10.7543    1.0808    0.0000 O   0  0  0  0  0  0  0  0  0  0  0  0
  -11.2944    3.6221    0.0000 N   0  0  0  0  0  0  0  0  0  0  0  0
  -12.7617    3.3102    0.0000 C   0  0  0  0  0  0  0  0  0  0  0  0
  -13.2252    1.8836    0.0000 O   0  0  0  0  0  0  0  0  0  0  0  0
  -13.7653    4.4249    0.0000 C   0  0  0  0  0  0  0  0  0  0  0  0
  -15.2571    4.2681    0.0000 N   0  0  0  0  0  0  0  0  0  0  0  0
  -15.8672    5.6384    0.0000 N   0  0  0  0  0  0  0  0  0  0  0  0
  -14.7525    6.6421    0.0000 N   0  0  0  0  0  0  0  0  0  0  0  0
  -13.4535    5.8921    0.0000 N   0  0  0  0  0  0  0  0  0  0  0  0
  -12.0832    6.5023    0.0000 C   0  0  0  0  0  0  0  0  0  0  0  0
  -10.8696    5.6206    0.0000 C   0  0  0  0  0  0  0  0  0  0  0  0
   -9.4993    6.2307    0.0000 C   0  0  0  0  0  0  0  0  0  0  0  0
   -9.3425    7.7225    0.0000 C   0  0  0  0  0  0  0  0  0  0  0  0
  -10.5561    8.6041    0.0000 C   0  0  0  0  0  0  0  0  0  0  0  0
  -11.9264    7.9940    0.0000 C   0  0  0  0  0  0  0  0  0  0  0  0
   -7.8198    1.7045    0.0000 C   0  0  0  0  0  0  0  0  0  0  0  0
   -6.3526    2.0164    0.0000 C   0  0  0  0  0  0  0  0  0  0  0  0
   -0.7500    1.2990    0.0000 C   0  0  0  0  0  0  0  0  0  0  0  0
    0.7500    1.2990    0.0000 C   0  0  0  0  0  0  0  0  0  0  0  0
  1  2  1  0
  2  3  2  0
  3  4  1  0
  4  5  2  0
  5  6  1  0
  6  7  2  0
  7  8  1  0
  8  9  2  0
  9 10  1  0
 10 11  1  0
 11 12  2  0
 12 13  1  0
 13 14  2  0
 14 15  1  0
 15 16  2  0
 16 17  1  0
 17 18  2  0
 18 19  1  0
 19 20  2  0
 20 21  1  0
 21 22  2  0
 21 23  1  0
 23 24  1  0
 24 25  2  0
 24 26  1  0
 26 27  2  0
 27 28  1  0
 28 29  2  0
 29 30  1  0
 30 31  1  0
 31 32  2  0
 32 33  1  0
 33 34  2  0
 34 35  1  0
 35 36  2  0
 20 37  1  0
 37 38  2  0
  5 39  1  0
 39 40  2  0
 40  2  1  0
 10  6  1  0
 16 11  1  0
 38 17  1  0
 30 26  1  0
 36 31  1  0
M  END
>  <Title>  (48) 
idAAFKgen10

$$$$

     RDKit          2D

 34 38  0  0  0  0  0  0  0  0999 V2000
    3.0000    0.0000    0.0000 C   0  0  0  0  0  0  0  0  0  0  0  0
    1.5000    0.0000    0.0000 C   0  0  0  0  0  0  0  0  0  0  0  0
    0.7500   -1.2990    0.0000 C   0  0  0  0  0  0  0  0  0  0  0  0
   -0.7500   -1.2990    0.0000 C   0  0  0  0  0  0  0  0  0  0  0  0
   -1.5000    0.0000    0.0000 C   0  0  0  0  0  0  0  0  0  0  0  0
   -3.0000    0.0000    0.0000 C   0  0  0  0  0  0  0  0  0  0  0  0
   -3.7500   -1.2990    0.0000 O   0  0  0  0  0  0  0  0  0  0  0  0
   -3.7500    1.2990    0.0000 N   0  0  0  0  0  0  0  0  0  0  0  0
   -5.2500    1.2990    0.0000 C   0  0  0  0  0  0  0  0  0  0  0  0
   -6.1317    0.0855    0.0000 N   0  0  0  0  0  0  0  0  0  0  0  0
   -7.5583    0.5490    0.0000 N   0  0  0  0  0  0  0  0  0  0  0  0
   -7.5583    2.0490    0.0000 N   0  0  0  0  0  0  0  0  0  0  0  0
   -6.1317    2.5126    0.0000 N   0  0  0  0  0  0  0  0  0  0  0  0
   -5.6682    3.9391    0.0000 C   0  0  0  0  0  0  0  0  0  0  0  0
   -4.2009    4.2510    0.0000 C   0  0  0  0  0  0  0  0  0  0  0  0
   -3.7374    5.6776    0.0000 C   0  0  0  0  0  0  0  0  0  0  0  0
   -4.7411    6.7923    0.0000 C   0  0  0  0  0  0  0  0  0  0  0  0
   -6.2083    6.4805    0.0000 C   0  0  0  0  0  0  0  0  0  0  0  0
   -6.6718    5.0539    0.0000 C   0  0  0  0  0  0  0  0  0  0  0  0
   -8.1391    4.7420    0.0000 C   0  0  0  0  0  0  0  0  0  0  0  0
   -8.7492    3.3717    0.0000 C   0  0  0  0  0  0  0  0  0  0  0  0
  -10.2410    3.5285    0.0000 C   0  0  0  0  0  0  0  0  0  0  0  0
  -10.5528    4.9957    0.0000 C   0  0  0  0  0  0  0  0  0  0  0  0
  -11.9231    5.6058    0.0000 C   0  0  0  0  0  0  0  0  0  0  0  0
  -12.0799    7.0976    0.0000 C   0  0  0  0  0  0  0  0  0  0  0  0
  -13.4503    7.7077    0.0000 C   0  0  0  0  0  0  0  0  0  0  0  0
  -14.6638    6.8260    0.0000 C   0  0  0  0  0  0  0  0  0  0  0  0
  -14.5070    5.3342    0.0000 C   0  0  0  0  0  0  0  0  0  0  0  0
  -13.1367    4.7241    0.0000 C   0  0  0  0  0  0  0  0  0  0  0  0
   -9.2538    5.7457    0.0000 C   0  0  0  0  0  0  0  0  0  0  0  0
   -9.0970    7.2375    0.0000 O   0  0  0  0  0  0  0  0  0  0  0  0
   -0.7500    1.2990    0.0000 C   0  0  0  0  0  0  0  0  0  0  0  0
   -1.5000    2.5981    0.0000 O   0  0  0  0  0  0  0  0  0  0  0  0
    0.7500    1.2990    0.0000 N   0  0  0  0  0  0  0  0  0  0  0  0
  1  2  1  0
  2  3  2  0
  3  4  1  0
  4  5  2  0
  5  6  1  0
  6  7  2  0
  6  8  1  0
  8  9  1  0
  9 10  2  0
 10 11  1  0
 11 12  2  0
 12 13  1  0
 13 14  1  0
 14 15  1  0
 15 16  1  0
 16 17  1  0
 17 18  1  0
 18 19  1  0
 19 20  1  0
 20 21  2  0
 21 22  1  0
 22 23  2  0
 23 24  1  0
 24 25  2  0
 25 26  1  0
 26 27  2  0
 27 28  1  0
 28 29  2  0
 23 30  1  0
 30 31  2  0
  5 32  1  0
 32 33  2  0
 32 34  1  0
 34  2  1  0
 13  9  1  0
 19 14  1  0
 30 20  1  0
 29 24  1  0
M  END
>  <Title>  (49) 
idABEJgen9

$$$$

     RDKit          2D

 51 58  0  0  0  0  0  0  0  0999 V2000
    3.0000    0.0000    0.0000 C   0  0  0  0  0  0  0  0  0  0  0  0
    1.5000    0.0000    0.0000 C   0  0  0  0  0  0  0  0  0  0  0  0
    0.7500    1.2990    0.0000 C   0  0  0  0  0  0  0  0  0  0  0  0
   -0.7500    1.2990    0.0000 C   0  0  0  0  0  0  0  0  0  0  0  0
   -1.5000    0.0000    0.0000 C   0  0  0  0  0  0  0  0  0  0  0  0
   -3.0000    0.0000    0.0000 C   0  0  0  0  0  0  0  0  0  0  0  0
   -3.8817   -1.2135    0.0000 N   0  0  0  0  0  0  0  0  0  0  0  0
   -5.3083   -0.7500    0.0000 N   0  0  0  0  0  0  0  0  0  0  0  0
   -5.3083    0.7500    0.0000 N   0  0  0  0  0  0  0  0  0  0  0  0
   -3.8817    1.2135    0.0000 N   0  0  0  0  0  0  0  0  0  0  0  0
   -3.4182    2.6401    0.0000 C   0  0  0  0  0  0  0  0  0  0  0  0
   -1.9509    2.9520    0.0000 C   0  0  0  0  0  0  0  0  0  0  0  0
   -1.4874    4.3786    0.0000 C   0  0  0  0  0  0  0  0  0  0  0  0
   -2.4911    5.4933    0.0000 C   0  0  0  0  0  0  0  0  0  0  0  0
   -2.0276    6.9199    0.0000 C   0  0  0  0  0  0  0  0  0  0  0  0
   -2.9093    8.1334    0.0000 N   0  0  0  0  0  0  0  0  0  0  0  0
   -2.0276    9.3469    0.0000 N   0  0  0  0  0  0  0  0  0  0  0  0
   -0.6010    8.8834    0.0000 N   0  0  0  0  0  0  0  0  0  0  0  0
   -0.6010    7.3834    0.0000 N   0  0  0  0  0  0  0  0  0  0  0  0
    0.6125    6.5017    0.0000 C   0  0  0  0  0  0  0  0  0  0  0  0
    0.4557    5.0099    0.0000 C   0  0  0  0  0  0  0  0  0  0  0  0
    1.6693    4.1283    0.0000 C   0  0  0  0  0  0  0  0  0  0  0  0
    3.0396    4.7384    0.0000 C   0  0  0  0  0  0  0  0  0  0  0  0
    4.2531    3.8567    0.0000 C   0  0  0  0  0  0  0  0  0  0  0  0
    5.6234    4.4668    0.0000 O   0  0  0  0  0  0  0  0  0  0  0  0
    4.0963    2.3649    0.0000 N   0  0  0  0  0  0  0  0  0  0  0  0
    5.3098    1.4832    0.0000 O   0  0  0  0  0  0  0  0  0  0  0  0
    3.1964    6.2301    0.0000 C   0  0  0  0  0  0  0  0  0  0  0  0
    1.9829    7.1118    0.0000 C   0  0  0  0  0  0  0  0  0  0  0  0
   -3.9583    5.1814    0.0000 C   0  0  0  0  0  0  0  0  0  0  0  0
   -4.4218    3.7548    0.0000 C   0  0  0  0  0  0  0  0  0  0  0  0
   -5.8891    3.4430    0.0000 C   0  0  0  0  0  0  0  0  0  0  0  0
   -6.4992    2.0726    0.0000 C   0  0  0  0  0  0  0  0  0  0  0  0
   -7.9910    2.2294    0.0000 C   0  0  0  0  0  0  0  0  0  0  0  0
   -8.3028    3.6967    0.0000 C   0  0  0  0  0  0  0  0  0  0  0  0
   -9.6731    4.3068    0.0000 C   0  0  0  0  0  0  0  0  0  0  0  0
  -10.9722    3.5568    0.0000 N   0  0  0  0  0  0  0  0  0  0  0  0
  -12.0869    4.5605    0.0000 N   0  0  0  0  0  0  0  0  0  0  0  0
  -11.4768    5.9308    0.0000 N   0  0  0  0  0  0  0  0  0  0  0  0
   -9.9850    5.7740    0.0000 N   0  0  0  0  0  0  0  0  0  0  0  0
   -8.9813    6.8887    0.0000 C   0  0  0  0  0  0  0  0  0  0  0  0
   -7.5141    6.5768    0.0000 C   0  0  0  0  0  0  0  0  0  0  0  0
   -6.5104    7.6915    0.0000 C   0  0  0  0  0  0  0  0  0  0  0  0
   -6.9739    9.1181    0.0000 C   0  0  0  0  0  0  0  0  0  0  0  0
   -8.4411    9.4300    0.0000 C   0  0  0  0  0  0  0  0  0  0  0  0
   -9.4448    8.3153    0.0000 C   0  0  0  0  0  0  0  0  0  0  0  0
   -7.0038    4.4467    0.0000 C   0  0  0  0  0  0  0  0  0  0  0  0
   -6.8470    5.9384    0.0000 O   0  0  0  0  0  0  0  0  0  0  0  0
   -0.7500   -1.2990    0.0000 C   0  0  0  0  0  0  0  0  0  0  0  0
   -1.5000   -2.5981    0.0000 O   0  0  0  0  0  0  0  0  0  0  0  0
    0.7500   -1.2990    0.0000 N   0  0  0  0  0  0  0  0  0  0  0  0
  1  2  1  0
  2  3  2  0
  3  4  1  0
  4  5  2  0
  5  6  1  0
  6  7  2  0
  7  8  1  0
  8  9  2  0
  9 10  1  0
 10 11  1  0
 11 12  2  0
 12 13  1  0
 13 14  2  0
 14 15  1  0
 15 16  2  0
 16 17  1  0
 17 18  2  0
 18 19  1  0
 19 20  1  0
 20 21  2  0
 21 22  1  0
 22 23  2  0
 23 24  1  0
 24 25  2  0
 24 26  1  0
 26 27  1  0
 23 28  1  0
 28 29  1  0
 14 30  1  0
 30 31  2  0
 31 32  1  0
 32 33  2  0
 33 34  1  0
 34 35  2  0
 35 36  1  0
 36 37  2  0
 37 38  1  0
 38 39  2  0
 39 40  1  0
 40 41  1  0
 41 42  2  0
 42 43  1  0
 43 44  2  0
 44 45  1  0
 45 46  2  0
 35 47  1  0
 47 48  2  0
  5 49  1  0
 49 50  2  0
 49 51  1  0
 51  2  1  0
 10  6                                                                                                                                                                                                                                                                                                                                                                                                                                                                                                                                                                                                                                                                                                                                                                                                                                                                                                                                                                                                                                                                                                                                                                                                                                                                                                                                                                                                                                                                                                                                                                                                                                                                                                                                                                                                                                                                                                                                                                                                                                                                                                                                                                                                                                                                                                                                                                                                                                                                                                                                                                                                                                                                                                                                                                                                                                                                                                                                                                                                                                                                                                                                                                                                                                                                                                                                                                                                                                                                                                                                                                                                                                                                                                                                                                                                                                                                                                                                                                                                                                                                                                                                                                                                                                                                                                                                                                                                                                                                                                                                                                                                                                                                                                                                                                                                                                                                                                                                                                                                                                                                                                                                                                                                                                                                                                                                                                                                                                                                                                                                                                                                                                                                                                                                                                                                                                                                                                                                                                                                                                                                                                                                                                                                                                                                                                                                                                                                                                                                                                                                                                                                                                                                                                                                                                                                                                                                                                                                                                                                                                                                                                                                                                                                                                                                                                                                                                                                                                                                                                                                                                                                                                                                                                                                                                                                                                                                                                                                                                                                                                                                                                                                                                                                                                                                                                                                                                                                                                                                                                                                                                                                                                                                                                                                                                                                                                                                                                                                                                                                                                                                                                                                                                                                                                                                                                                                                                                                                                                                                                                                                                                                                                                                                                                                                                                                                                                                                                                                                                                                                                                                                                                                                                                                                                                                                                                                                                                                                                                                                                                                                                                                                                                                                                                                                                                                                                                                                                                                                                                                                                                                                                                                                                                                                                                                                                                                                                                                                                                                                                                                                                                                                                                                                                                                                                                                                                                                                                                                                                                                                                                                                                                                                                                                                                                                                                                                                                                                                                                                                                                                                                                                                                                                                                                                                                                                                                                                                                                                                                                                                                                                                                                                                                                                                                                                                                                                                                                                                                                                                                                                                                                                                                                                                                                                                                                                                                                                                                                                                                                                                                                                                                                                                                                                                                                                                                                                                                                                                                                                                                                                                                                                                                                                                                                                                                                                                                                                                                                                                                                                                                                                                                                                                                                                                                                                                                                                                                                                                                                                                                                                                                                                                                                                                                                                                                                                                                                                                                                                                                                                                                                                                                                                                                                                                                                                                                                                                                                                                                                                                                                                                                                                                                                                                                                                                                                                                                                                                                                                                                                                                                                                                                                                                                                                                                                                                                                                                                                                                                                                                                                                                                                                                                                                                                                                                                                                                                                                                                                                                                                                                                                                                                                                                                                                                                                                                                                                                                                                                                                                                                                                                                                                                                                                                                                                                                                                                                                                                                                                                                                                                                                                                                                                                                                                                                                                                                                                                                                                                                                                                                                                                                                                                                                                                                                                                                                                                                                                                                                                                                                                                                                                                                                                                                                                                                                                                                                                                                                                                                                                                                                                                                                                                                                                                                                                                                                                                                                                                                                                                                                                                                                                                                                                                                                                                                                                                                                                                                                                                                                                                                                                                                                                                                                                                                                                                                                                                                                                                                                                                                                                                                                                                                                                                                                                                                                                                                                                                                                                                                                                                                                                                                                                                                                                                                                                                                                                                                                                                                                                                                                                                                                                                                                                                                                                                                                                                                                                                                                                                                                                                                                                                                                                                                                                                                                                                                                                                                                                                                                                                                                                                                                                                                                                                                                                                                                                                                                                                                                                                                                                                                                                                                                                                                                                                                                                                                                                                                                                                                                                                                                                                                                                                                                                                                                                                                                                                                                                                                                                                                                                                                                                                                                                                                                                                                                                                                                                                                                                                                                                                                                                                                                                                                                                                                                                                                                                                                                                                                                                                                                                                                                                                                                                                                                                                                                                                                                                                                                                                                                                                                                                                                                                                                                                                                                                                                                                                                                                                                                                                                                                                                                                                                                                                                                                                                                                                                                                                                                                                                                                                                                                                                                                                                                                                                                                                                                                                                                                                                                                                                                                                                                                                                                                                                                                                                                                                                                                                                                                                                                                                                                                                                                                                                                                                                                                                                                                                                                                                                                                                                                                                                                                                                                                                                                                                                                                                                                                                                                                                                                                                                                                                                                                                                                                                                                                                                                                                                                                                                                                                                                                                                                                                                                                                                                                                                                                                                                                                                                                                                                                                                                                                                                                                                                                                                                                                                                                                                                                                                                                                                                                                                                                                                                                                                                                                                                                                                                                                                                                                                                                                                                                                                                                                                                                                                                                                                                                                                                                                                                                                                                                                                                                                                                                                                                                                                                                                                                                                                                                                                                                                                                                                                                                                                                                                                                                                                                                                                                                                                                                                                                                                                                                                                                                                                                                                                                                                                                                                                                                                                                                                                                                                                                                                                                                                                                                                                                                                                                                                                                                                                                                                                                                                                                                                                                                                                                                                                                                                                                                                                                                                                                                                                                                                                                                                                                                                                                                                                                                                                                                                                                                                                                                                                                                                                                                                                                                                                                                                                                                                                                                                                                                                                                                                                                                                                                                                                                                                                                                                                                                                                                                                                                                                                                                                                                                                                                                                                                                                                                                                                                                                                                                                                                                                                                                                                                                                                                                                                                                                                                                                                                                                                                                                                                                                                                                                                                                                                                                                                                                                                                                                                                                                                                                                                                                                                                                                                                                                                                                                                                                                                                                                                                                                                                                                                                                                                                                                                                                                                                                                                                                                                                                                                                                                                                                                                                                                                                                                                                                                                                                                                                                                                                                                                                                                                                                                                                                                                                                                                                                                                                                                                                                                                                                                                                                                                                                                                                                                                                                                                                                                                                                                                                                                                                                                                                                                                                                                                                                                                                                                                                                                                                                                                                                                                                                                                                                                                                                                                                                                                                                                                                                                                                                                                                                                                                                                                                                                                                                                                                                                                                                                                                                                                                                                                                                                                                                                                                                                                                                                                                                                                                                                                                                                                                                                                                                                                                                                                                                                                                                                                                                                                                                                                                                                                                                                                                                                                                                                                                                                                                                                                                                                                                                                                                                                                                                                                                                                                                                                                                                                                                                                                                                                                                                                                                                                                                                                                                                                                                                                                                                                                                                                                                                                                                                                                                                                                                                                                                                                                                                                                                                                                                                                                                                                                                                                                                                                                                                                                                                                                                                                                                                                                                                                                                                                                                                                                                                                                                                                                                                                                                                                                                                                                                                                                                                                                                                                                                                                                                                                                                                                                                                                                                                                                                                                                                                                                                                                                                                                                                                                                                                                                                                                                                                                                                                                                                                                                                                                                                                                                                                                                                                                                                                                                                                                                                                                                                                                                                                                                                                                                                                                                                                                                                                                                                                                                                                                                                                                                                                                                                                                                                                                                                                                                                                                                                                                                                                                                                                                                                                                                                                                                                                                                                                                                                                                                                                                                                                                                                                                                                                                                                                                                                                                                                                                                                                                                                                                                                                                                                                                                                                                                                                                                                                                                                                                                                                                                                                                                                                                                                                                                                                                                                                                                                                                                                                                                                                                                                                                                                                                                                                                                                                                                                                                                                                                                                                                                                                                                                                                                                                                                                                                                                                                                                                                                                                                                                                                                                                                                                                                                                                                                                                                                                                                                                                                                                                                                                                                                                                                                                                                                                                                                                                                                                                                                                                                                                                                                                                                                                                                                                                                                                                                                                                                                                                                                                                                                                                                                                                                                                                                                                                                                                                                                                                                                                                                                                                                                                                                                                                                                                                                                                                                                                                                                                                                                                                                                                                                                                                                                                                                                                                                                                                                                                                                                                                                                                                                                                                                                                                                                                                                                                                                                                                                                                                                                                                                                                                                                                                                                                                                                                                                                                                                                                                                                                                                                                                                                                                                                                                                                                                                                                                                                                                                                                                                                                                                                                                                                                                                                                                                                                                                                                                                                                                                                                                                                                                                                                                                                                                                                                                                                                                                                                                                                                                                                                                                                                                                                                                                                                                                                                                                                                                                                                                                                                                                                                                                                                                                                                                                                                                                                                                                                                                                                                                                                                                                                                                                                                                                                                                                                                                                                                                                                                                                                                                                                                                                                                                                                                                                                                                                                                                                                                                                                                                                                                                                                                                                                                                                                                                                                                                                                                                                                                                                                                                                                                                                                                                                                                                                                                                                                                                                                                                                                                                                                                                                                                                                                                                                                                                                                                                                                                                                                                                                                                                                                                                                                                                                                                                                                                                                                                                                                                                                                                                                                                                                                                                                                                                                                                                                                                                                                                                                                                                                                                                                                                                                                                                                                                                                                                                                                                                                                                                                                                                                                                                                                                                                                                                                                                                                                                                                                                                                                                                                                                                                                                                                                                                                                                                                                                                                                                                                                                                                                                                                                                                                                                                                                                                                                                                                                                                                                                                                                                                                                                                                                                                                                                                                                                                                                                                                                                                                                                                                                                                                                                                                                                                                                                                                                                                                                                                                                                                                                                                                                                                                                                                                                                                                                                                                                                                                                                                                                                                                                                                                                                                                                                                                                                                                                                                                                                                                                                                                                                                                                                                                                                                                                                                                                                                                                                                                                                                                                                                                                                                                                                                                                                                                                                                                                                                                                                                                                                                                                                                                                                                                                                                                                                                                                                                                                                                                                                                                                                                                                                                                                                                                                                                                                                                                                                                                                                                                                                                                                                                                                                                                                                                                                                                                                                                                                                                                                                                                                                                                                                                                                                                                                                                                                                                                                                                                                                                                                                                                                                                                                                                                                                                                                                                                                                                                                                                                                                                                                                                                                                                                                                                                                                                                                                                                                                                                                                                                                                                                                                                                                                                                                                                                                                                                                                                                                                                                                                                                                                                                                                                                                                                                                                                                                                                                                                                                                                                                                                                                                                                                                                                                                                                                                                                                                                                                                                                                                                                                                                                                                                                                                                                                                                                                                                                                                                                                                                                                                                                                                                                                                                                                                                                                                                                                                                                                                                                                                                                                                                                                                                                                                                                                                                                                                                                                                                                                                                                                                                                                                                                                                                                                                                                                                                                                                                                                                                                                                                                                                                                                                                                                                                                                                                                                                                                                                                                                                                                                                                                                                                                                                                                                                                                                                                                                                                                                                                                                                                                                                                                                                                                                                                                                                                                                                                                                                                                                                                                                                                                                                                                                                                                                                                                                                                                                                                                                                                                                                                                                                                                                                                                                                                                                                                                                                                                                                                                                                                                                                                                                                                                                                                                                                                                                                                                                                                                                                                                                                                                                                                                                                                                                                                                                                                                                                                                                                                                                                                                                                                                                                                                                                                                                                                                                                                                                                                                                                                                                                                                                                                                                                                                                                                                                                                                                                                                                                                                                                                                                                                                                                                                                                                                                                                                                                                                                                                                                                                                                                                                                                                                                                                                                                                                                                                                                                                                                                                                                                                                                                                                                                                                                                                                                                                                                                                                                                                                                                                                                                                                                                                                                                                                                                                                                                                                                                                                                                                                                                                                                                                                                                                                                                                                                                                                                                                                                                                                                                                                                                                                                                                                                                                                                                                                                                                                                                                                                                                                                                                                                                                                                                                                                                                                                                                                                                                                                                                                                                                                                                                                                                                                                                                                                                                                                                                                                                                                                                                                                                                                                                                                                                                                                                                                                                                                                                                                                                                                                                                                                                                                                                                                                                                                                                                                                                                                                                                                                                                                                                                                                                                                                                                                                                                                                                                                                                                                                                                                                                                                                                                                                                                                                                                                                                                                                                                                                                                                                                                                                                                                                                                                                                                                                                                                                                                                                                                                                                                                                                                                                                                                                                                                                                                                                                                                                                                                                                                                                                                                                                                                                                                                                                                                                                                                                                                                                                                                                                                                                                                                                                                                                                                                                                                                                                                                                                                                                                                                                                                                                                                                                                                                                                                                                                                                                                                                                                                                                                                                                                                                                                                                                                                                                                                                                                                                                                                                                                                                                                                                                                                                                                                                                                                                                                                                                                                                                                                                                                                                                                                                                                                                                                                                                                                                                                                                                                                                                                                                                                                                                                                                                                                                                                                                                                                                                                                                                                                                                                                                                                                                                                                                                                                                                                                                                                                                                                                                                                                                                                                                                                                                                                                                                                                                                                                                                                                                                                                                                                                                                                                                                                                                                                                                                                                                                                                                                                                                                                                                                                                                                                                                                                                                                                                                                                                                                                                                                                                                                                                                                                                                                                                                                                                                                                                                                                                                                                                                                                                                                                                                                                                                                                                                                                                                                                                                                                                                                                                                                                                                                                                                                                                                                                                                                                                                                                                                                                                                                                                                                                                                                                                                                                                                                                                                                                                                                                                                                                                                                                                                                                                                                                                                                                                                                                                                                                                                                                                                                                                                                                                                                                                                                                                                                                                                                                                                                                                                                                                                                                                                                                                                                                                                                                                                                                                                                                                                                                                                                                                                                                                                                                                                                                                                                                                                                                                                                                                                                                                                                                                                                                                                                                                                                                                                                                                                                                                                                                                                                                                                                                                                                                                                                                                                                                                                                                                                                                                                                                                                                                                                                                                                                                                                                                                                                                                                                                                                                                                                                                                                                                                                                                                                                                                                                                                                                                                                                                                                                                                                                                                                                                                                                                                                                                                                                                                                                                                                                                                                                                                                                                                                                                                                                                                                                                                                                                                                                                                                                                                                                                                                                                                                                                                                                                                                                                                                                                                                                                                                                                                                                                                                                                                                                                                                                                                                                                                                                                                                                                                                                                                                                                                                                                                                                                                                                                                                                                                                                                                                                                                                                                                                                                                                                                                                                                                                                                                                                                                                                                                                                                                                                                                                                                                                                                                                                                                                                                                                                                                                                                                                                                                                                                                                                                                                                                                                                                                                                                                                                                                                                                                                                                                                                                                                                                                                                                                                                                                                                                                                                                                                                                                                                                                                                                                                                                                                                                                                                                                                                                                                                                                                                                                                                                                                                                                                                                                                                                                                                                                                                                                                                                                                                                                                                                                                                                                                                                                                                                                                                                                                                                                                                                                                                                                                                                                                                                                                                                                                                                                                                                                                                                                                                                                                                                                                                                                                                                                                                                                                                                                                                                                                                                                                                                                                                                                                                                                                                                                                                                                                                                                                                                                                                                                                                                                                                                                                                                                                                                                                                                                                                                                                                                                                                                                                                                                                                                                                                                                                                                                                                                                                                                                                                                                                                                                                                                                                                                                                                                                                                                                                                                                                                                                                                                                                                                                                                                                                                                                                                                                                                                                                                                                                                                                                                                                                                                                                                                                                                                                                                                                                                                                                                                                                                                                                                                                                                                                                                                                                                                                                                                                                                                                                                                                                                                                                                                                                                                                                                                                                                                                                                                                                                                                                                                                                                                                                                                                                                                                                                                                                                                                                                                                                                                                                                                                                                                                                                                                                                                                                                                                                                                                                                                                                                                                                                                                                                                                                                                                                                                                                                                                                                                                                                                                                                                                                                                                                                                                                                                                                                                                                                                                                                                                                                                                                                                                                                                                                                                                                                                                                                                                                                                                                                                                                                                                                                                                                                                                                                                                                                                                                                                                                                                                                                                                                                                                                                                                                                                                                                                                                                                                                                                                                                                                                                                                                                                                                                                                                                                                                                                                                                                                                                                                                                                                                                                                                                                                                                                                                                                                                                                                                                                                                                                                                                                                                                                                                                                                                                                                                                                                                                                                                                                                                                                                                                                                                                                                                                                                                                                                                                                                                                                                                                                                                                                                                                                                                                                                                                                                                                                                                                                                                                                                                                                                                                                                                                                                                                                                                                                                                                                                                                                                                                                                                                                                                                                                                                                                                                                                                                                                                                                                                                                                                                                                                                                                                                                                                                                                                                                                                                                                                                                                                                                                                                                                                                                                                                                                                                                                                                                                                                                                                                                                                                                                                                                                                                                                                                                                                                                                                                                                                                                                                                                                                                                                                                                                                                                                                                                                                                                                                                                                                                                                                                                                                                                                                                                                                                                                                                                                                                                                                                                                                                                                                                                                                                                                                                                                                                                                                                                                                                                                                                                                                                                                                                                                                                                                                                                                                                                                                                                                                                                                                                                                                                                                                                                                                                                                                                                                                                                                                                                                                                                                                                                                                                                                                                                                                                                                                                                                                                                                                                                                                                                                                                                                                                                                                                                                                                                                                                                                                                                                                                                                                                                                                                                                                                                                                                                                                                                                                                                                                                                                                                                                                                                                                                                                                                                                                                                                                                                                                                                                                                                                                                                                                                                                                                                                                                                                                                                                                                                                                                                                                                                                                                                                                                                                                                                                                                                                                                                                                                                                                                                                                                                                                                                                                                                                                                                                                                                                                                                                                                                                                                                                                                                                                                                                                                                                                                                                                                                                                                                                                                                                                                                                                                                                                                                                                                                                                                                                                                                                                                                                                                                                                                                                                                                                                                                                                                                                                                                                                                                                                                                                                                                                                                                                                                                                                                                                                                                                                                                                                                                                                                                                                                                                                                                                                                                                                                                                                                                                                                                                                                                                                                                                                                                                                                                                                                                                                                                                                                                                                                                                                                                                                                                                                                                                                                                                                                                                                                                                                                                                                                                                                                                                                                                                                                                                                                                                                                                                                                                                                                                                                                                                                                                                                                                                                                                                                                                                                                                                                                                                                                                                                                                                                                                                                                                                                                                                                                                                                                                                                                                                                                                                                                                                                                                                                                                                                                                                                                                                                                                                                                                                                                                                                                                                                                                                                                                                                                                                                                                                                                                                                                                                                                                                                                                                                                                                                                                                                                                                                                                                                                                                                                                                                                                                                                                                                                                                                                                                                                                                                                                                                                                                                                                                                                                                                                                                                                                                                                                                                                                                                                                                                                                                                                                                                                                                                                                                                                                                                                                                                                                                                                                                                                                                                                                                                                                                                                                                                                                                                                                                                                                                                                                                                                                                                                                                                                                                                                                                                                                                                                                                                                                                                                                                                                                                                                                                                                                                                                                                                                                                                                                                                                                                                                                                                                                                                                                                                                                                                                                                                                                                                                                                                                                                                                                                                                                                                                                                                                                                                                                                                                                                                                                                                                                                                                                                                                                                                                                                                                                                                                                                                                                                                                                                                                                                                                                                                                                                                                                                                                                                                                                                                                                                                                                                                                                                                                                                                                                                                                                                                                                                                                                                                                                                                                                                                                                                                                                                                                                                                                                                                                                                                                                                                                                                                                                                                                                                                                                                                                                                                                                                                                                                                                                                                                                                                                                                                                                                                                                                                                                                                                                                                                                                                                                                                                                                                                                                                                                                                                                                                                                                                                                                                                                                                                                                                                                                                                                                                                                                                                                                                                                                                                                                                                                                                                                                                                                                                                                                                                                                                                                                                                                                                                                                                                                                                                                                                                                                                                                                                                                                                                                                                                                                                                                                                                                                                                                                                                                                                                                                                                                                                                                                                                                                                                                                                                                                                                                                                                                                                                                                                                                                                                                                                                                                                                                                                                                                                                                                                                                                                                                                                                                                                                                                                                                                                                                                                                                                                                                                                                                                                                                                                                                                                                                                                                                                                                                                                                                                                                                                                                                                                                                                                                                                                                                                                                                                                                                                                                                                                                                                                                                                                                                                                                                                                                                                                                                                                                                                                                                                                                                                                                                                                                                                                                                                                                                                                                                                                                                                                                                                                                                                                                                                                                                                                                                                                                                                                                                                                                                                                                                                                                                                                                                                                                                                                                                                                                                                                                                                                                                                                                                                                                                                                                                                                                                                                                                                                                                                                                                                                                                                                                                                                                                                                                                                                                                                                                                                                                                                                                                                                                                                                                                                                                                                                                                                                                                                                                                                                                                                                                                                                                                                                                                                                                                                                                                                                                                                                                                                                                                                                                                                                                                                                                                                                                                                                                                                                                                                                                                                                                                                                                                                                                                                                                                                                                                                                                                                                                                                                                                                                                                                                                                                                                                                                                                                                                                                                                                                                                                                                                                                                                                                                                                                                                                                                                                                                                                                                                                                                                                                                                                                                                                                                                                                                                                                                                                                                                                                                                                                                                                                                                                                                                                                                                                                                                                                                                                                                                                                                                                                                                                                                                                                                                                                                                                                                                                                                                                                                                                                                                                                                                                                                                                                                                                                                                                                                                                                                                                                                                                                                                                                                                                                                                                                                                                                                                                                                                                                                                                                                                                                                                                                                                                                                                                                                                                                                                                                                                                                                                                                                                                                                                                                                                                                                                                                                                                                                                                                                                                                                                                                                                                                                                                                                                                                                                                                                                                                                                                                                                                                                                                                                                                                                                                                                                                                                                                                                                                                                                                                                                                                                                                                                                                                                                                                                                                                                                                                                                                                                                                                                                                                                                                                                                                                                                                                                                                                                                                                                                                                                                                                                                                                                                                                                                                                                                                                                                                                                                                                                                                                                                                                                                                                                                                                                                                                                                                                                                                                                                                                                                                                                                                                                                                                                                                                                                                                                                                                                                                                                                                                                                                                                                                                                                                                                                                                                                                                                                                                                                                                                                                                                                                                                                                                                                                                                                                                                                                                                                                                                                                                                                                                                                                                                                                                                                                                                                                                                                                                                                                                                                                                                                                                                                                                                                                                                                                                                                                                                                                                                                                                                                                                                                                                                                                                                                                                                                                                                                                                                                                                                                                                                                                                                                                                                                                                                                                                                                                                                                                                                                                                                                                                                                                                                                                                                                                                                                                                                                                                                                                                                                                                                                                                                                                                                                                                                                                                                                                                                                                                                                                                                                                                                                                                                                                                                                                                                                                                                                                                                                                                                                                                                                                                                                                                                                                                                                                                                                                                                                                                                                                                                                                                                                                                                                                                                                                                                                                                                                                                                                                                                                                                                                                                                                                                                                                                                                                                                                                                                                                                                                                                                                                                                                                                                                                                                                                                                                                                                                                                                                                                                                                                                                                                                                                                                                                                                                                                                                                                                                                                                                                                                                                                                                                                                                                                                                                                                                                                                                                                                                                                                                                                                                                                                                                                                                                                                                                                                                                                                                                                                                                                                                                                                                                                                                                                                                                                                                                                                                                                                                                                                                                                                                                                                                                                                                                                                                                                                                                                                                                                                                                                                                                                                                                                                                                                                                                                                                                                                                                                                                                                                                                                                                                                                                                                                                                                                                                                                                                                                                                                                                                                                                                                                                                                                                                                                                                                                                                                                                                                                                                                                                                                                                                                                                                                                                                                                                                                                                                                                                                                                                                                                                                                                                                                                                                                                                                                                                                                                                                                                                                                                                                                                                                                                                                                                                                                                                                                                                                                                                                                                                                                                                                                                                                                                                                                                                                                                                                                                                                                                                                                                                                                                                                                                                                                                                                                                                                                                                                                                                                                                                                                                                                                                                                                                                                                                                                                                                                                                                                                                                                                                                                                                                                                                                                                                                                                                                                                                                                                                                                                                                                                                                                                                                                                                                                                                                                                                                                                                                                                                                                                                                                                                                                                                                                                                                                                                                                                                                                                                                                                                                                                                                                                                                                                                                                                                                                                                                                                                                                                                                                                                                                                                                                                                                                                                                                                                                                                                                                                                                                                                                                                                                                                                                                                                                                                                                                                                                                                                                                                                                                                                                                                                                                                                                                                                                                                                                                                                                                                                                                                                                                                                                                                                                                                                                                                                                                                                                                                                                                                                                                                                                                                                                                                                                                                                                                                                                                                                                                                                                                                                                                                                                                                                                                                                                                                                                                                                                                                                                                                                                                                                                                                                                                                                                                                                                                                                                                                                                                                                                                                                                                                                                                                                                                                                                                                                                                                                                                                                                                                                                                                                                                                                                                                                                                                                                                                                                                                                                                                                                                                                                                                                                                                                                                                                                                                                                                                                                                                                                                                                                                                                                                                                                                                                                                                                                                                                                                                                                                                                                                                                                                                                                                                                                                                                                                                                                                                                                                                                                                                                                                                                                                                                                                                                                                                                                                                                                                                                                                                                                                                                                                                                                                                                                                                                                                                                                                                                                                                                                                                                                                                                                                                                                                                                                                                                                                                                                                                                                                                                                                                                                                                                                                                                                                                                                                                                                                                                                                                                                                                                                                                                                                                                                                                                                                                                                                                                                                                                                                                                                                                                                                                                                                                                                                                                                                                                                                                                                                                                                                                                                                                                                                                                                                                                                                                                                                                                                                                                                                                                                                                                                                                                                                                                                                                                                                                                                                                                                                                                                                                                                                                                                                                                                                                                                                                                                                                                                                                                                                                                                                                                                                                                                                                                                                                                                                                                                                                                                                                                                                                                                                                                                                                                                                                                                                                                                                                                                                                                                                                                                                                                                                                                                                                                                                                                                                                                                                                                                                                                                                                                                                                                                                                                                                                                                                                                                                                                                                                                                                                                                                                                                                                                                                                                                                                                                                                                                                                                                                                                                                                                                                                                                                                                                                                                                                                                                                                                                                                                                                                                                                                                                                                                                                                                                                                                                                                                                                                                                                                                                                                                                                                                                                                                                                                                                                                                                                                                                                                                                                                                                                                                                                                                                                                                                                                                                                                                                                                                                                                                                                                                                                                                                                                                                                                                                                                                                                                                                                                                                                                                                                                                                                                                                                                                                                                                                                                                                                                                                                                                                                                                                                                                                                                                                                                                                                                                                                                                                                                                                                                                                                                                                                                                                                                                                                                                                                                                                                                                                                                                                                                                                                                                                                                                                                                                                                                                                                                                                                                                                                                                                                                                                                                                                                                                                                                                                                                                                                                                                                                                                                                                                                                                                                                                                                                                                                                                                                                                                                                                                                                                                                                                                                                                                                                                                                                                                                                                                                                                                                                                                                                                                                                                                                                                                                                                                                                                                                                                                                                                                                                                                                                                                                                                                                                                                                                                                                                                                                                                                                                                                                                                                                                                                                                                                                                                                                                                                                                                                                                                                                                                                                                                                                                                                                                                                                                                                                                                                                                                                                                                                                                                                                                                                                                                                                                                                                                                                                                                                                                                                                                                                                                                                                                                                                                                                                                                                                                                                                                                                                                                                                                                                                                                                                                                                                                                                                                                                                                                                                                                                                                                                                                                                                                                                                                                                                                                                                                                                                                                                                                                                                                                                                                                                                                                                                                                                                                                                                                                                                                                                                                                                                                                                                                                                                                                                                                                                                                                                                                                                                                                                                                                                                                                                                                                                                                                                                                                                                                                                                                                                                                                                                                                                                                                                                                                                                                                                                                                                                                                                                                                                                                                                                                                                                                                                                                                                                                                                                                                                                                                                                                                                                                                                                                                                                                                                                                                                                                                                                                                                                                                                                                                                                                                                                                                                                                                                                                                                                                                                                                                                                                                                                                                                                                                                                                                                                                                                                                                                                                                                                                                                                                                                                                                                                                                                                                                                                                                                                                                                                                                                                                                                                                                                                                                                                                                                                                                                                                                                                                                                                                                                                                                                                                                                                                                                                                                                                                                                                                                                                                                                                                                                                                                                                                                                                                                                                                                                                                                                                                                                                                                                                                                                                                                                                                                                                                                                                                                                                                                                                                                                                                                                                                                                                                                                                                                                                                                                                                                                                                                                                                                                                                                                                                                                                                                                                                                                                                                                                                                                                                                                                                                                                                                                                                                                                                                                                                                                                                                                                                                                                                                                                                                                                                                                                                                                                                                                                                                                                                                                                                                                                                                                                                                                                                                                                                                                                                                                                                                                                                                                                                                                                                                                                                                                                                                                                                                                                                                                                                                                                                                                                                                                                                                                                                                                                                                                                                                                                                                                                                                                                                                                                                                                                                                                                                                                                                                                                                                                                                                                                                                                                                                                                                                                                                                                                                                                                                                                                                                                                                                                                                                                                                                                                                                                                                                                                                                                                                                                                                                                                                                                                                                                                                                                                                                                                                                                                                                                                                                                                                                                                                                                                                                                                                                                                                                                                                                                                                                                                                                                                                                                                                                                                                                                                                                                                                                                                                                                                                                                                                                                                                                                                                                                                                                                                                                                                                                                                                                                                                                                                                                                                                                                                                                                                                                                                                                                                                                                                                                                                                                                                                                                                                                                                                                                                                                                                                                                                                                                                                                                                                                                                                                                                                                                                                                                                                                                                                                                                                                                                                                                                                                                                                                                                                                                                                                                                                                                                                                                                                                                                                                                                                                                                                                                                                                                                                                                                                                                                                                                                                                                                                                                                                                                                                                                                                                                                                                                                                                                                                                                                                                                                                                                                                                                                                                                                                                                                                                                                                                                                                                                                                                                                                                                                                                                                                                                                                                                                                                                                                                                                                                                                                                                                                                                                                                                                                                                                                                                                                                                                                                                                                                                                                                                                                                                                                                                                                                                                                                                                                                                                                                                                                                                                                                                                                                                                                                                                                                                                                                                                                                                                                                                                                                                                                                                                                                                                                                                                                                                                                                                                                                                                                                                                                                                                                                                                                                                                                                                                                                                                                                                                                                                                                                                                                                                                                                                                                                                                                                                                                                                                                                                                                                                                                                                                                                                                                                                                                                                                                                                                                                                                                                                                                                                                                                                                                                                                                                                                                                                                                                                                                                                                                                                                                                                                                                                                                                                                                                                                                                                                                                                                                                                                                                                                                                                                                                                                                                                                                                                                                                                                                                                                                                                                                                                                                                                                                                                                                                                                                                                                                                                                                                                                                                                                                                                                                                                                                                                                                                                                                                                                                                                                                                                                                                                                                                                                                                                                                                                                                                                                                                                                                                                                                                                                                                                                                                                                                                                                                                                                                                                                                                                                                                                                                                                                                                                                                                                                                                                                                                                                                                                                                                                                                                                                                                                                                                                                                                                                                                                                                                                                                                                                                                                                                                                                                                                                                                                                                                                                                                                                                                                                                                                                                                                                                                                                                                                                                                                                                                                                                                                                                                                                                                                                                                                                                                                                                                                                                                                                                                                                                                                                                                                                                                                                                                                                                                                                                                                                                                                                                                                                                                                                                                                                                                                                                                                                                                                                                                                                                                                                                                                                                                                                                                                                                                                                                                                                                                                                                                                                                                                                                                                                                                                                                                                                                                                                                                                                                                                                                                                                                                                                                                                                                                                                                                                                                                                                                                                                                                                                                                                                                                                                                                                                                                                                                                                                                                                                                                                                                                                                                                                                                                                                                                                                                                                                                                                                                                                                                                                                                                                                                                                                                                                                                                                                                                                                                                                                                                                                                                                                                                                                                                                                                                                                                                                                                                                                                                                                                                                                                                                                                                                                                                                                                                                                                                                                                                                                                                                                                                                                                                                                                                                                                                                                                                                                                                                                                                                                                                                                                                                                                                                                                                                                                                                                                                                                                                                                                                                                                                                                                                                                                                                                                                                                                                                                                                                                                                                                                                                                                                                                                                                                                                                                                                                                                                                                                                                                                                                                                                                                                                                                                                                                                                                                                                                                                                                                                                                                                                                                                                                                                                                                                                                                                                                                                                                                                                                                                                                                                                                                                                                                                                                                                                                                                                                                                                                                                                                                                                                                                                                                                                                                                                                                                                                                                                                                                                                                                                                                                                                                                                                                                                                                                                                                                                                                                                                                                                                                                                                                                                                                                                                                                                                                                                                                                                                                                                                                                                                                                                                                                                                                                                                                                                                                                                                                                                                                                                                                                                                                                                                                                                                                                                                                                                                                                                                                                                                                                                                                                                                                                                                                                                                                                                                                                                                                                                                                                                                                                                                                                                                                                                                                                                                                                                                                                                                                                                                                                                                                                                                                                                                                                                                                                                                                                                                                                                                                                                                                                                                                                                                                                                                                                                                                                                                                                                                                                                                                                                                                                                                                                                                                                                                                                                                                                                                                                                                                                                                                                                                                                                                                                                                                                                                                                                                                                                                                                                                                                                                                                                                                                                                                                                                                                                                                                                                                                                                                                                                                                                                                                                                                                                                                                                                                                                                                                                                                                                                                                                                                                                                                                                                                                                                                                                                                                                                                                                                                                                                                                                                                                                                                                                                                                                                                                                                                                                                                                                                                                                                                                                                                                                                                                                                                                                                                                                                                                                                                                                                                                                                                                                                                                                                                                                                                                                                                                                                                                                                                                                                                                                                                                                                                                                                                                                                                                                                                                                                                                                                                                                                                                                                                                                                                                                                                                                                                                                                                                                                                                                                                                                                                                                                                                                                                                                                                                                                                                                                                                                                                                                                                                                                                                                                                                                                                                                                                                                                                                                                                                                                                                                                                                                                                                                                                                                                                                                                                                                                                                                                                                                                                                                                                                                                                                                                                                                                                                                                                                                                                                                                                                                                                                                                                                                                                                                                                                                                                                                                                                                                                                                                                                                                                                                                                                                                                                                                                                                                                                                                                                                                                                                                                                                                                                                                                                                                                                                                                                                                                                                                                                                                                                                                                                                                                                                                                                                                                                                                                                                                                                                                                                                                                                                                                                                                                                                                                                                                                                                                                                                                                                                                                                                                                                                                                                                                                                                                                                                                                                                                                                                                                                                                                                                                                                                                                                                                                                                                                                                                                                                                                                                                                                                                                                                                                                                                                                                                                                                                                                                                                                                                                                                                                                                                                                                                                                                                                                                                                                                                                                                                                                                                                                                                                                                                                                                                                                                                                                                                                                                                                                                                                                                                                                                                                                                                                                                                                                                                                                                                                                                                                                                                                                                                                                                                                                                                                                                                                                                                                                                                                                                                                                                                                                                                                                                                                                                                                                                                                                                                                                                                                                                                                                                                                                                                                                                                                                                                                                                                                                                                                                                                                                                                                                                                                                                                                                                                                                                                                                                                                                                                                                                                                                                                                                                                                                                                                                                                                                                                                                                                                                                                                                                                                                                                                                                                                                                                                                                                                                                                                                                                                                                                                                                                                                                                                                                                                                                                                                                                                                                                                                                                                                                                                                                                                                                                                                                                                                                                                                                                                                                                                                                                                                                                                                                                                                                                                                                                                                                                                                                                                                                                                                                                                                                                                                                                                                                                                                                                                                                                                                                                                                                                                                                                                                                                                                                                                                                                                                                                                                                                                                                                                                                                                                                                                                                                                                                                                                                                                                                                                                                                                                                                                                                                                                                                                                                                                                                                                                                                                                                                                                                                                                                                                                                                                                                                                                                                                                                                                                                                                                                                                                                                                                                                                                                                                                                                                                                                                                                                                                                                                                                                                                                                                                                                                                                                                                                                                                                                                                                                                                                                                                                                                                                                                                                                                                                                                                                                                                                                                                                                                                                                                                                                                                                                                                                                                                                                                                                                                                                                                                                                                                                                                                                                                                                                                                                                                                                                                                                                                                                                                                                                                                                                                                                                                                                                                                                                                                                                                                                                                                                                                                                                                                                                                                                                                                                                                                                                                                                                                                                                                                                                                                                                                                                                                                                                                                                                                                                                                                                                                                                                                                                                                                                                                                                                                                                                                                                                                                                                                                                                                                                                                                                                                                                                                                                                                                                                                                                                                                                                                                                                                                                                                                                                                                                                                                                                                                                                                                                                                                                                                                                                                                                                                                                                                                                                                                                                                                                                                                                                                                                                                                                                                                                                                                                                                                                                                                                                                                                                                                                                                                                                                                                                                                                                                                                                                                                                                                                                                                                                                                                                                                                                                                                                                                                                                                                                                                                                                                                                                                                                                                                                                                                                                                                                                                                                                                                                                                                                                                                                                                                                                                                                                                                                                                                                                                                                                                                                                                                                                                                                                                                                                                                                                                                                                                                                                                                                                                                                                                                                                                                                                                                                                                                                                                                                                                                                                                                                                                                                                                                                                                                                                                                                                                                                                                                                                                                                                                                                                                                                                                                                                                                                                                                                                                                                                                                                                                                                                                                                                                                                                                                                                                                                                                                                                                                                                                                                                                                                                                                                                                                                                                                                                                                                                                                                                                                                                                                                                                                                                                                                                                                                                                                                                                                                                                                                                                                                                                                                                                                                                                                                                                                                                                                                                                                                                                                                                                                                                                                                                                                                                                                                                                                                                                                                                                                                                                                                                                                                                                                                                                                                                                                                                                                                                                                                                                                                                                                                                                                                                                                                                                                                                                                                                                                                                                                                                                                                                                                                                                                                                                                                                                                                                                                                                                                                                                                                                                                                                                                                                                                                                                                                                                                                                                                                                                                                                                                                                                                                                                                                                                                                                                                                                                                                                                                                                                                                                                                                                                                                                                                                                                                                                                                                                                                                                                                                                                                                                                                                                                                                                                                                                                                                                                                                                                                                                                                                                                                                                                                                                                                                                                                                                                                                                                                                                                                                                                                                                                                                                                                                                                                                                                                                                                                                                                                                                                                                                                                                                                                                                                                                                                                                                                                                                                                                                                                                                                                                                                                                                                                                                                                                                                                                                                                                                                                                                                                                                                                                                                                                                                                                                                                                                                                                                                                                                                                                                                                                                                                                                                                                                                                                                                                                                                                                                                                                                                                                                                                                                                                                                                                                                                                                                                                                                                                                                                                                                                                                                                                                                                                                                                                                                                                                                                                                                                                                                                                                                                                                                                                                                                                                                                                                                                                                                                                                                                                                                                                                                                                                                                                                                                                                                                                                                                                                                                                                                                                                                                                                                                                                                                                                                                                                                                                                                                                                                                                                                                                                                                                                                                                                                                                                                                                                                                                                                                                                                                                                                                                                                                                                                                                                                                                                                                                                                                                                                                                                                                                                                                                                                                                                                                                                                                                                                                                                                                                                                                                                                                                                                                                                                                                                                                                                                                                                                                                                                                                                                                                                                                                                                                                                                                                                                                                                                                                                                                                                                                                                                                                                                                                                                                                                                                                                                                                                                                                                                                                                                                                                                                                                                                                                                                                                                                                                                                                                                                                                                                                                                                                                                                                                                                                                                                                                                                                                                                                                                                                                                                                                                                                                                                                                                                                                                                                                                                                                                                                                                                                                                                                                                                                                                                                                                                                                                                                                                                                                                                                                                                                                                                                                                                                                                                                                                                                                                                                                                                                                                                                                                                                                                                                                                                                                                                                                                                                                                                                                                                                                                                                                                                                                                                                                                                                                                                                                                                                                                                                                                                                                                                                                                                                                                                                                                                                                                                                                                                                                                                                                                                                                                                                                                                                                                                                                                                                                                                                                                                                                                                                                                                                                                                                                                                                                                                                                                                                                                                                                                                                                                                                                                                                                                                                                                                                                                                                                                                                                                                                                                                                                                                                                                                                                                                                                                                                                                                                                                                                                                                                                                                                                                                                                                                                                                                                                                                                                                                                                                                                                                                                                                                                                                                                                                                                                                                                                                                                                                                                                                                                                                                                                                                                                                                                                                                                                                                                                                                                                                                                                                                                                                                                                                                                                                                                                                                                                                                                                                                                                                                                                                                                                                                                                                                                                                                                                                                                                                                                                                                                                                                                                                                                                                                                                                                                                                                                                                                                                                                                                                                                                                                                                                                                                                                                                                                                                                                                                                                                                                                                                                                                                                                                                                                                                                                                                                                                                                                                                                                                                                                                                                                                                                                                                                                                                                                                                                                                                                                                                                                                                                                                                                                                                                                                                                                                                                                                                                                                                                                                                                                                                                                                                                                                                                                                                                                                                                                                                                                                                                                                                                                                                                                                                                                                                                                                                                                                                                                                                                                                                                                                                                                                                                                                                                                                                                                                                                                                                                                                                                                                                                                                                                                                                                                                                                                                                                                                                                                                                                                                                                                                                                                                                                                                                                                                                                                                                                                                                                                                                                                                                                                                                                                                                                                                                                                                                                                                                                                                                                                                                                                                                                                                                                                                                                                                                                                                                                                                                                                                                                                                                                                                                                                                                                                                                                                                                                                                                                                                                                                                                                                                                                                                                                                                                                                                                                                                                                                                                                                                                                                                                                                                                                                                                                                                                                                                                                                                                                                                                                                                                                                                                                                                                                                                                                                                                                                                                                                                                                                                                                                                                                                                                                                                                                                                                                                                                                                                                                                                                                                                                                                                                                                                                                                                                                                                                                                                                                                                                                                                                                                                                                                                                                                                                                                                                                                                                                                                                                                                                                                                                                                                                                                                                                                                                                                                                                                                                                                                                                                                                                                                                                                                                                                                                                                                                                                                                                                                                                                                                                                                                                                                                                                                                                                                                                                                                                                                                                                                                                                                                                                                                                                                                                                                                                                                                                                                                                                                                                                                                                                                                                                                                                                                                                                                                                                                                                                                                                                                                                                                                                                                                                                                                                                                                                                                                                                                                                                                                                                                                                                                                                                                                                                                                                                                                                                                                                                                                                                                                                                                                                                                                                                                                                                                                                                                                                                                                                                                                                                                                                                                                                                                                                                                                                                                                                                                                                                                                                                                                                                                                                                                                                                                                                                                                                                                                                                                                                                                                                                                                                                                                                                                                                                                                                                                                                                                                                                                                                                                                                                                                                                                                                                                                                                                                                                                                                                                                                                                                                                                                                                                                                                                                                                                                                                                                                                                                                                                                                                                                                                                                                                                                                                                                                                                                                                                                                                                                                                                                                                                                                                                                                                                                                                                                                                                                                                                                                                                                                                                                                                                                                                                                                                                                                                                                                                                                                                                                                                                                                                                                                                                                                                                                                                                                                                                                                                                                                                                                                                                                                                                                                                                                                                                                                                                                                                                                                                                                                                                                                                                                                                                                                                                                                                                                                                                                                                                                                                                                                                                                                                                                                                                                                                                                                                                                                                                                                                                                                                                                                                                                                                                                                                                                                                                                                                                                                                                                                                                                                                                                                                                                                                                                                                                                                                                                                                                                                                                                                                                                                                                                                                                                                                                                                                                                                                                                                                                                                                                                                                                                                                                                                                                                                                                                                                                                                                                                                                                                                                                                                                                                                                                                                                                                                                                                                                                                                                                                                                                                                                                                                                                                                                                                                                                                                                                                                                                                                                                                                                                                                                                                                                                                                                                                                                                                                                                                                                                                                                                                                                                                                                                                                                                                                                                                                                                                                                                                                                                                                                                                                                                                                                                                                                                                                                                                                                                                                                                                                                                                                                                                                                                                                                                                                                                                                                                                                                                                                                                                                                                                                                                                                                                                                                                                                                                                                                                                                                                                                                                                                                                                                                                                                                                                                                                                                                                                                                                                                                                                                                                                                                                                                                                                                                                                                                                                                                                                                                                                                                                                                                                                                                                                                                                                                                                                                                                                                                                                                                                                                                                                                                                                                                                                                                                                                                                                                                                                                                                                                                                                                                                                                                                                                                                                                                                                                                                                                                                                                                                                                                                                                                                                                                                                                                                                                                                                                                                                                                                                                                                                                                                                                                                                                                                                                                                                                                                                                                                                                                                                                                                                                                                                                                                                                                                                                                                                                                                                                                                                                                                                                                                                                                                                                                                                                                                                                                                                                                                                                                                                                                                                                                                                                                                                                                                                                                                                                                                                                                                                                                                                                                                                                                                                                                                                                                                                                                                                                                                                                                                                                                                                                                                                                                                                                                                                                                                                                                                                                                                                                                                                                                                                                                                                                                                                                                                                                                                                                                                                                                                                                                                                                                                                                                                                                                                                                                                                                                                                                                                                                                                                                                                                                                                                                                                                                                                                                                                                                                                                                                                                                                                                                                                                                                                                                                                                                                                                                                                                                                                                                                                                                                                                                                                                                                                                                                                                                                                                                                                                                                                                                                                                                                                                                                                                                                                                                                                                                                                                                                                                                                                                                                                                                                                                                                                                                                                                                                                                                                                                                                                                                                                                                                                                                                                                                                                                                                                                                                                                                                                                                                                                                                                                                                                                                                                                                                                                                                                                                                                                                                                                                                                                                                                                                                                                                                                                                                                                                                                                                                                                                                                                                                                                                                                                                                                                                                                                                                                                                                                                                                                                                                                                                                                                                                                                                                                                                                                                                                                                                                                                                                                                                                                                                                                                                                                                                                                                                                                                                                                                                                                                                                                                                                                                                                                                                                                                                                                                                                                                                                                                                                                                                                                                                                                                                                                                                                                                                                                                                                                                                                                                                                                                                                                                                                                                                                                                                                                                                                                                                                                                                                                                                                                                                                                                                                                                                                                                                                                                                                                                                                                                                                                                                                                                                                                                                                                                                                                                                                                                                                                                                                                                                                                                                                                                                                                                                                                                                                                                                                                                                                                                                                                                                                                                                                                                                                                                                                                                                                                                                                                                                                                                                                                                                                                                                                                                                                                                                                                                                                                                                                                                                                                                                                                                                                                                                                                                                                                                                                                                                                                                                                                                                                                                                                                                                                                                                                                                                                                                                                                                                                                                                                                                                                                                                                                                                                                                                                                                                                                                                                                                                                                                                                                                                                                                                                                                                                                                                                                                                                                                                                                                                                                                                                                                                                                                                                                                                                                                                                                                                                                                                                                                                                                                                                                                                                                                                                                                                                                                                                                                                                                                                                                                                                                                                                                                                                                                                                                                                                                                                                                                                                                                                                                                                                                                                                                                                                                                                                                                                                                                                                                                                                                                                                                                                                                                                                                                                                                                                                                                                                                                                                                                                                                                                                                                                                                                                                                                                                                                                                                                                                                                                                                                                                                                                                                                                                                                                                                                                                                                                                                                                                                                                                                                                                                                                                                                                                                                                                                                                                                                                                                                                                                                                                                                                                                                                                                                                                                                                                                                                                                                                                                                                                                                                                                                                                                                                                                                                                                                                                                                                                                                                                                                                                                                                                                                                                                                                                                                                                                                                                                                                                                                                                                                                                                                                                                                                                                                                                                                                                                                                                                                                                                                                                                                                                                                                                                                                                                                                                                                                                                                                                                                                                                                                                                                                                                                                                                                                                                                                                                                                                                                                                                                                                                                                                                                                                                                                                                                                                                                                                                                                                                                                                                                                                                                                                                                                                                                                                                                                                                                                                                                                                                                                                                                                                                                                                                                                                                                                                                                                                                                                                                                                                                                                                                                                                                                                                                                                                                                                                                                                                                                                                                                                                                                                                                                                                                                                                                                                                                                                                                                                                                                                                                                                                                                                                                                                                                                                                                                                                                                                                                                                                                                                                                                                                                                                                                                                                                                                                                                                                                                                                                                                                                                                                                                                                                                                                                                                                                                                                                                                                                                                                                                                                                                                                                                                                                                                                                                                                                                                                                                                                                                                                                                                                                                                                                                                                                                                                                                                                                                                                                                                                                                                                                                                                                                                                                                                                                                                                                                                                                                                                                                                                                                                                                                                                                                                                                                                                                                                                                                                                                                                                                                                                                                                                                                                                                                                                                                                                                                                                                                                                                                                                                                                                                                                                                                                                                                                                                                                                                                                                                                                                                                                                                                                                                                                                                                                                                                                                                                                                                                                                                                                                                                                                                                                                                                                                                                                                                                                                                                                                                                                                                                                                                                                                                                                                                                                                                                                                                                                                                                                                                                                                                                                                                                                                                                                                                                                                                                                                                                                                                                                                                                                                                                                                                                                                                                                                                                                                                                                                                                                                                                                                                                                                                                                                                                                                                                                                                                                                                                                                                                                                                                                                                                                                                                                                                                                                                                                                                                                                                                                                                                                                                                                                                                                                                                                                                                                                                                                                                                                                                                                                                                                                                                                                                                                                                                                                                                                                                                                                                                                                                                                                                                                                                                                                                                                                                                                                                                                                                                                                                                                                                                                                                                                                                                                                                                                                                                                                                                                                                                                                                                                                                                                                                                                                                                                                                                                                                                                                                                                                                                                                                                                                                                                                                                                                                                                                                                                                                                                                                                                                                                                                                                                                                                                                                                                                                                                                                                                                                                                                                                                                                                                                                                                                                                                                                                                                                                                                                                                                                                                                                                                                                                                                                                                                                                                                                                                                                                                                                                                                                                                                                                                                                                                                                                                                                                                                                                                                                                                                                                                                                                                                                                                                                                                                                                                                                                                                                                                                                                                                                                                                                                                                                                                                                                                                                                                                                                                                                                                                                                                                                                                                                                                                                                                                                                                                                                                                                                                                                                                                                                                                                                                                                                                                                                                                                                                                                                                                                                                                                                                                                                                                                                                                                                                                                                                                                                                                                                                                                                                                                                                                                                                                                                                                                                                                                                                                                                                                                                                                                                                                                                                                                                                                                                                                                                                                                                                                                                                                                                                                                                                                                                                                                                                                                                                                                                                                                                                                                                                                                                                                                                                                                                                                                                                                                                                                                                                                                                                                                                                                                                                                                                                                                                                                                                                                                                                                                                                                                                                                                                                                                                                                                                                                                                                                                                                                                                                                                                                                                                                                                                                                                                                                                                                                                                                                                                                                                                                                                                                                                                                                                                                                                                                                                                                                                                                                                                                                                                                                                                                                                                                                                                                                                                                                                                                                                                                                                                                                                                                                                                                                                                                                                                                                                                                                                                                                                                                                                                                                                                                                                                                                                                                                                                                                                                                                                                                                                                                                                                                                                                                                                                                                                                                                                                                                                                                                                                                                                                                                                                                                                                                                                                                                                                                                                                                                                                                                                                                                                                                                                                                                                                                                                                                                                                                                                                                                                                                                                                                                                                                                                                                                                                                                                                                                                                                                                                                                                                                                                                                                                                                                                                                                                                                                                                                                                                                                                                                                                                                                                                                                                                                                                                                                                                                                                                                                                                                                                                                                                                                                                                                                                                                                                                                                                                                                                                                                                                                                                                                                                                                                                                                                                                                                                                                                                                                                                                                                                                                                                                                                                                                                                                                                                                                                                                                                                                                                                                                                                                                                                                                                                                                                                                                                                                                                                                                                                                                                                                                                                                                                                                                                                                                                                                                                                                                                                                                                                                                                                                                                                                                                                                                                                                                                                                                                                                                                                                                                                                                                                                                                                                                                                                                                                                                                                                                                                                                                                                                                                                                                                                                                                                                                                                                                                                                                                                                                                                                                                                                                                                                                                                                                                                                                                                                                                                                                                                                                                                                                                                                                                                                                                                                                                                                                                                                                                                                                                                                                                                                                                                                                                                                                                                                                                                                                                                                                                                                                                                                                                                                                                                                                                                                                                                                                                                                                                                                                                                                                                                                                                                                                                                                                                                                                                                                                                                                                                                                                                                                                                                                                                                                                                                                                                                                                                                                                                                                                                                                                                                                                                                                                                                                                                                                                                                                                                                                                                                                                                                                                                                                                                                                                                                                                                                                                                                                                                                                                                                                                                                                                                                                                                                                                                                                                                                                                                                                                                                                                                                                                                                                                                                                                                                                                                                                                                                                                                                                                                                                                                                                                                                                                                                                                                                                                                                                                                                                                                                                                                                                                                                                                                                                                                                                                                                                                                                                                                                                                                                                                                                                                                                                                                                                                                                                                                                                                                                                                                                                                                                                                                                                                                                                                                                                                                                                                                                                                                                                                                                                                                                                                                                                                                                                                                                                                                                                                                                                                                                                                                                                                                                                                                                                                                                                                                                                                                                                                                                                                                                                                                                                                                                                                                                                                                                                                                                                                                                                                                                                                                                                                                                                                                                                                                                                                                                                                                                                                                                                                                                                                                                                                                                                                                                                                                                                                                                                                                                                                                                                                                                                                                                                                                                                                                                                                                                                                                                                                                                                                                                                                                                                                                                                                                                                                                                                                                                                                                                                                                                                                                                                                                                                                                                                                                                                                                                                                                                                                                                                                                                                                                                                                                                                                                                                                                                                                                                                                                                                                                                                                                                                                                                                                                                                                                                                                                                                                                                                                                                                                                                                                                                                                                                                                                                                                                                                                                                                                                                                                                                                                                                                                                                                                                                                                                                                                                                                                                                                                                                                                                                                                                                                                                                                                                                                                                                                                                                                                                                                                                                                                                                                                                                                                                                                                                                                                                                                                                                                                                                                                                                                                                                                                                                                                                                                                                                                                                                                                                                                                                                                                                                                                                                                                                                                                                                                                                                                                                                                                                                                                                                                                                                                                                                                                                                                                                                                                                                                                                                                                                                                                                                                                                                                                                                                                                                                                                                                                                                                                                                                                                                                                                                                                                                                                                                                                                                                                                                                                                                                                                                                                                                                                                                                                                                                                                                                                                                                                                                                                                                                                                                                                                                                                                                                                                                                                                                                                                                                                                                                                                                                                                                                                                                                                                                                                                                                                                                                                                                                                                                                                                                                                                                                                                                                                                                                                                                                                                                                                                                                                                                                                                                                                                                                                                                                                                                                                                                                                                                                                                                                                                                                                                                                                                                                                                                                                                                                                                                                                                                                                                                                                                                                                                                                                                                                                                                                                                                                                                                                                                                                                                                                                                                                                                                                                                                                                                                                                                                                                                                                                                                                                                                                                                                                                                                                                                                                                                                                                                                                                                                                                                                                                                                                                                                                                                                                                                                                                                                                                                                                                                                                                                                                                                                                                                                                                                                                                                                                                                                                                                                                                                                                                                                                                                                                                                                                                                                                                                                                                                                                                                                                                                                                                                                                                                                                                                                                                                                                                                                                                                                                                                                                                                                                                                                                                                                                                                                                                                                                                                                                                                                                                                                                                                                                                                                                                                                                                                                                                                                                                                                                                                                                                                                                                                                                                                                                                                                                                                                                                                                                                                                                                                                                                                                                                                                                                                                                                                                                                                                                                                                                                                                                                                                                                                                                                                                                                                                                                                                                                                                                                                                                                                                                                                                                                                                                                                                                                                                                                                                                                                                                                                                                                                                                                                                                                                                                                                                                                                                                                                                                                                                                                                                                                                                                                                                                                                                                                                                                                                                                                                                                                                                                                                                                                                                                                                                                                                                                                                                                                                                                                                                                                                                                                                                                                                                                                                                                                                                                                                                                                                                                                                                                                                                                                                                                                                                                                                                                                                                                                                                                                                                                                                                                                                                                                                                                                                                                                                                                                                                                                                                                                                                                                                                                                                                                                                                                                                                                                                                                                                                                                                                                                                                                                                                                                                                                                                                                                                                                                                                                                                                                                                                                                                                                                                                                                                                                                                                                                                                                                                                                                                                                                                                                                                                                                                                                                                                                                                                                                                                                                                                                                                                                                                                                                                                                                                                                                                                                                                                                                                                                                                                                                                                                                                                                                                                                                                                                                                                                                                                                                                                                                                                                                                                                                                                                                                                                                                                                                                                                                                                                                                                                                                                                                                                                                                                                                                                                                                                                                                                                                                                                                                                                                                                                                                                                                                                                                                                                                                                                                                                                                                                                                                                                                                                                                                                                                                                                                                                                                                                                                                                                                                                                                                                                                                                                                                                                                                                                                                                                                                                                                                                                                                                                                                                                                                                                                                                                                                                                                                                                                                                                                                                                                                                                                                                                                                                                                                                                                                                                                                                                                                                                                                                                                                                                                                                                                                                                                                                                                                                                                                                                                                                                                                                                                                                                                                                                                                                                                                                                                                                                                                                                                                                                                                                                                                                                                                                                                                                                                                                                                                                                                                                                                                                                                                                                                                                                                                                                                                                                                                                                                                                                                                                                                                                                                                                                                                                                                                                                                                                                                                                                                                                                                                                                                                                                                                                                                                                                                                                                                                                                                                                                                                                                                                                                                                                                                                                                                                                                                                                                                                                                                                                                                                                                                                                                                                                                                                                                                                                                                                                                                                                                                                                                                                                                                                                                                                                                                                                                                                                                                                                                                                                                                                                                                                                                                                                                                                                                                                                                                                                                                                                                                                                                                                                                                                                                                                                                                                                                                                                                                                                                                                                                                                                                                                                                                                                                                                                                                                                                                                                                                                                                                                                                                                                                                                                                                                                                                                                                                                                                                                                                                                                                                                                                                                                                                                                                                                                                                                                                                                                                                                                                                                                                                                                                                                                                                                                                                                                                                                                                                                                                                                                                                                                                                                                                                                                                                                                                                                                                                                                                                                                                                                                                                                                                                                                                                                                                                                                                                                                                                                                                                                                                                                                                                                                                                                                                                                                                                                                                                                                                                                                                                                                                                                                                                                                                                                                                                                                                                                                                                                                                                                                                                                                                                                                                                                                                                                                                                                                                                                                                                                                                                                                                                                                                                                                                                                                                                                                                                                                                                                                                                                                                                                                                                                                                                                                                                                                                                                                                                                                                                                                                                                                                                                                                                                                                                                                                                                                                                                                                                                                                                                                                                                                                                                                                                                                                                                                                                                                                                                                                                                                                                                                                                                                                                                                                                                                                                                                                                                                                                                                                                                                                                                                                                                                                                                                                                                                                                                                                                                                                                                                                                                                                                                                                                                                                                                                                                                                                                                                                                                                                                                                                                                                                                                                                                                                                                                                                                                                                                                                                                                                                                                                                                                                                                                                                                                                                                                                                                                                                                                                                                                                                                                                                                                                                                                                                                                                                                                                                                                                                                                                                                                                                                                                                                                                                                                                                                                                                                                                                                                                                                                                                                                                                                                                                                                                                                                                                                                                                                                                                                                                                                                                                                                                                                                                                                                                                                                                                                                                                                                                                                                                                                                                                                                                                                                                                                                                                                                                                                                                                                                                                                                                                                                                                                                                                                                                                                                                                                                                                                                                                                                                                                                                                                                                                                                                                                                                                                                                                                                                                                                                                                                                                                                                                                                                                                                                                                                                                                                                                                                                                                                                                                                                                                                                                                                                                                                                                                                                                                                                                                                                                                                                                                                                                                                                                                                                                                                                                                                                                                                                                                                                                                                                                                                                                                                                                                                                                                                                                                                                                                                                                                                                                                                                                                                                                                                                                                                                                                                                                                                                                                                                                                                                                                                                                                                                                                                                                                                                                                                                                                                                                                                                                                                                                                                                                                                                                                                                                                                                                                                                                                                                                                                                                                                                                                                                                                                                                                                                                                                                                                                                                                                                                                                                                                                                                                                                                                                                                                                                                                                                                                                                                                                                                                                                                                                                                                                                                                                                                                                                                                                                                                                                                                                                                                                                                                                                                                                                                                                                                                                                                                                                                                                                                                                                                                                                                                                                                                                                                                                                                                                                                                                                                                                                                                                                                                                                                                                                                                                                                                                                                                                                                                                                                                                                                                                                                                                                                                                                                                                                                                                                                                                                                                                                                                                                                                                                                                                                                                                                                                                                                                                                                                                                                                                                                                                                                                                                                                                                                                                                                                                                                                                                                                                                                                                                                                                                                                                                                                                                                                                                                                                                                                                                                                                                                                                                                                                                                                                                                                                                                                                                                                                                                                                                                                                                                                                                                                                                                                                                                                                                                                                                                                                                                                                                                                                                                                                                                                                                                                                                                                                                                                                                                                                                                                                                                                                                                                                                                                                                                                                                                                                                                                                                                                                                                                                                                                                                                                                                                                                                                                                                                                                                                                                                                                                                                                                                                                                                                                                                                                                                                                                                                                                                                                                                                                                                                                                                                                                                                                                                                                                                                                                                                                                                                                                                                                                                                                                                                                                                                                                                                                                                                                                                                                                                                                                                                                                                                                                                                                                                                                                                                                                                                                                                                                                                                                                                                                                                                                                                                                                                                                                                                                                                                                                                                                                                                                                                                                                                                                                                                                                                                                                                                                                                                                                                                                                                                                                                                                                                                                                                                                                                                                                                                                                                                                                                                                                                                                                                                                                                                                                                                                                                                                                                                                                                                                                                                                                                                                                                                                                                                                                                                                                                                                                                                                                                                                                                                                                                                                                                                                                                                                                                                                                                                                                                                                                                                                                                                                                                                                                                                                                                                                                                                                                                                                                                                                                                                                                                                                                                                                                                                                                                                                                                                                                                                                                                                                                                                                                                                                                                                                                                                                                                                                                                                                                                                                                                                                                                                                                                                                                                                                                                                                                                                                                                                                                                                                                                                                                                                                                                                                                                                                                                                                                                                                                                                                                                                                                                                                                                                                                                                                                                                                                                                                                                                                                                                                                                                                                                                                                                                                                                                                                                                                                                                                                                                                                                                                                                                                                                                                                                                                                                                                                                                                                                                                                                                                                                                                                                                                                                                                                                                                                                                                                                                                                                                                                                                                                                                                                                                                                                                                                                                                                                                                                                                                                                                                                                                                                                                                                                                                                                                                                                                                                                                                                                                                                                                                                                                                                                                                                                                                                                                                                                                                                                                                                                                                                                                                                                                                                                                                                                                                                                                                                                                                                                                                                                                                                                                                                                                                                                                                                                                                                                                                                                                                                                                                                                                                                                                                                                                                                                                                                                                                                                                                                                                                                                                                                                                                                                                                                                                                                                                                                                                                                                                                                                                                                                                                                                                                                                                                                                                                                                                                                                                                                                                                                                                                                                                                                                                                                                                                                                                                                                                                                                                                                                                                                                                                                                                                                                                                                                                                                                                                                                                                                                                                                                                                                                                                                                                                                                                                                                                                                                                                                                                                                                                                                                                                                                                                                                                                                                                                                                                                                                                                                                                                                                                                                                                                                                                                                                                                                                                                                                                                                                                                                                                                                                                                                                                                                                                                                                                                                                                                                                                                                                                                                                                                                                                                                                                                                                                                                                                                                                                                                                                                                                                                                                                                                                                                                                                                                                                                                                                                                                                                                                                                                                                                                                                                                                                                                                                                                                                                                                                                                                                                                                                                                                                                                                                                                                                                                                                                                                                                                                                                                                                                                                                                                                                                                                                                                                                                                                                                                                                                                                                                                                                                                                                                                                                                                                                                                                                                                                                                                                                                                                                                                                                                                                                                                                                                                                                                                                                                                                                                                                                                                                                                                                                                                                                                                                                                                                                                                                                                                                                                                                                                                                                                                                                                                                                                                                                                                                                                                                                                                                                                                                                                                                                                                                                                                                                                                                                                                                                                                                                                                                                                                                                                                                                                                                                                                                                                                                                                                                                                                                                                                                                                                                                                                                                                                                                                                                                                                                                                                                                                                                                                                                                                                                                                                                                                                                                                                                                                                                                                                                                                                                                                                                                                                                                                                                                                                                                                                                                                                                                                                                                                                                                                                                                                                                                                                                                                                                                                                                                                                                                                                                                                                                                                                                                                                                                                                                                                                                                                                                                                                                                                                                                                                                                                                                                                                                                                                                                                                                                                                                                                                                                                                                                                                                                                                                                                                                                                                                                                                                                                                                                                                                                                                                                                                                                                                                                                                                                                                                                                                                                                                                                                                                                                                                                                                                                                                                                                                                                                                                                                                                                                                                                                                                                                                                                                                                                                                                                                                                                                                                                                                                                                                                                                                                                                                                                                                                                                                                                                                                                                                                                                                                                                                                                                                                                                                                                                                                                                                                                                                                                                                                                                                                                                                                                                                                                                                                                                                                                                                                                                                                                                                                                                                                                                                                                                                                                                                                                                                                                                                                                                                                                                                                                                                                                                                                                                                                                                                                                                                                                                                                                                                                                                                                                                                                                                                                                                                                                                                                                                                                                                                                                                                                                                                                                                                                                                                                                                                                                                                                                                                                                                                                                                                                                                                                                                                                                                                                                                                                                                                                                                                                                                                                                                                                                                                                                                                                                                                                                                                                                                                                                                                                                                                                                                                                                                                                                                                                                                                                                                                                                                                                                                                                                                                                                                                                                                                                                                                                                                                                                                                                                                                                                                                                                                                                                                                                                                                                                                                                                                                                                                                                                                                                                                                                                                                                                                                                                                                                                                                                                                                                                                                                                                                                                                                                                                                                                                                                                                                                                                                                                                                                                                                                                                                                                                                                                                                                                                                                                                                                                                                                                                                                                                                                                                                                                                                                                                                                                                                                                                                                                                                                                                                                                                                                                                                                                                                                                                                                                                                                                                                                                                                                                                                                                                                                                                                                                                                                                                                                                                                                                                                                                                                                                                                                                                                                                                                                                                                                                                                                                                                                                                                                                                                                                                                                                                                                                                                                                                                                                                                                                                                                                                                                                                                                                                                                                                                                                                                                                                                                                                                                                                                                                                                                                                                                                                                                                                                                                                                                                                                                                                                                                                                                                                                                                                                                                                                                                                                                                                                                                                                                                                                                                                                                                                                                                                                                                                                                                                                                                                                                                                                                                                                                                                                                                                                                                                                                                                                                                                                                                                                                                                                                                                                                                                                                                                                                                                                                                                                                                                                                                                                                                                                                                                                                                                                                                                                                                                                                                                                                                                                                                                                                                                                                                                                                                                                                                                                                                                                                                                                                                                                                                                                                                                                                                                                                                                                                                                                                                                                                                                                                                                                                                                                                                                                                                                                                                                                                                                                                                                                                                                                                                                                                                                                                                                                                                                                                                                                                                                                                                                                                                                                                                                                                                                                                                                                                                                                                                                                                                                                                                                                                                                                                                                                                                                                                                                                                                                                                                                                                                                                                                                                                                                                                                                                                                                                                                                                                                                                                                                                                                                                                                                                                                                                                                                                                                                                                                                                                                                                                                                                                                                                                                                                                                                                                                                                                                                                                                                                                                                                                                                                                                                                                                                                                                                                                                                                                                                                                                                                                                                                                                                                                                                                                                                                                                                                                                                                                                                                                                                                                                                                                                                                                                                                                                                                                                                                                                                                                                                                                                                                                                                                                                                                                                                                                                                                                                                                                                                                                                                                                                                                                                                                                                                                                                                                                                                                                                                                                                                                                                                                                                                                                                                                                                                                                                                                                                                                                                                                                                                                                                                                                                                                                                                                                                                                                                                                                                                                                                                                                                                                                                                                                                                                                                                                                                                                                                                                                                                                                                                                                                                                                                                                                                                                                                                                                                                                                                                                                                                                                                                                                                                                                                                                                                                                                                                                                                                                                                                                                                                                                                                                                                                                                                                                                                                                                                                                                                                                                                                                                                                                                                                                                                                                                                                                                                                                                                                                                                                                                                                                                                                                                                                                                                                                                                                                                                                                                                                                                                                                                                                                                                                                                                                                                                                                                                                                                                                                                                                                                                                                                                                                                                                                                                                                                                                                                                                                                                                                                                                                                                                                                                                                                                                                                                                                                                                                                                                                                                                                                                                                                                                                                                                                                                                                                                                                                                                                                                                                                                                                                                                                                                                                                                                                                                                                                                                                                                                                                                                                                                                                                                                                                                                                                                                                                                                                                                                                                                                                                                                                                                                                                                                                                                                                                                                                                                                                                                                                                                                                                                                                                                                                                                                                                                                                                                                                                                                                                                                                                                                                                                                                                                                                                                                                                                                                                                                                                                                                                                                                                                                                                                                                                                                                                                                                                                                                                                                                                                                                                                                                                                                                                                                                                                                                                                                                                                                                                                                                                                                                                                                                                                                                                                                                                                                                                                                                                                                                                                                                                                                                                                                                                                                                                                                                                                                                                                                                                                                                                                                                                                                                                                                                                                                                                                                                                                                                                                                                                                                                                                                                                                                                                                                                                                                                                                                                                                                                                                                                                                                                                                                                                                                                                                                                                                                                                                                                                                                                                                                                                                                                                                                                                                                                                                                                                                                                                                                                                                                                                                                                                                                                                                                                                                                                                                                                                                                                                                                                                                                                                                                                                                                                                                                                                                                                                                                                                                                                                                                                                                                                                                                                                                                                                                                                                                                                                                                                                                                                                                                                                                                                                                                                                                                                                                                                                                                                                                                                                                                                                                                                                                                                                                                                                                                                                                                                                                                                                                                                                                                                                                                                                                                                                                                                                                                                                                                                                                                                                                                                                                                                                                                                                                                                                                                                                                                                                                                                                                                                                                                                                                                                                                                                                                                                                                                                                                                                                                                                                                                                                                                                                                                                                                                                                                                                                                                                                                                                                                                                                                                                                                                                                                                                                                                                                                                                                                                                                                                                                                                                                                                                                                                                                                                                                                                                                                                                                                                                                                                                                                                                                                                                                                                                                                                                                                                                                                                                                                                                                                                                                                                                                                                                                                                                                                                                                                                                                                                                                                                                                                                                                                                                                                                                                                                                                                                                                                                                                                                                                                                                                                                                                                                                                                                                                                                                                                                                                                                                                                                                                                                                                                                                                                                                                                                                                                                                                                                                                                                                                                                                                                                                                                                                                                                                                                                                                                                                                                                                                                                                                                                                                                                                                                                                                                                                                                                                                                                                                                                                                                                                                                                                                                                                                                                                                                                                                                                                                                                                                                                                                                                                                                                                                                                                                                                                                                                                                                                                                                                                                                                                                                                                                                                                                                                                                                                                                                                                                                                                                                                                                                                                                                                                                                                                                                                                                                                                                                                                                                                                                                                                                                                                                                                                                                                                                                                                                                                                                                                                                                                                                                                                                                                                                                                                                                                                                                                                                                                                                                                                                                                                                                                                                                                                                                                                                                                                                                                                                                                                                                                                                                                                                                                                                                                                                                                                                                                                                                                                                                                                                                                                                                                                                                                                                                                                                                                                                                                                                                                                                                                                                                                                                                                                                                                                                                                                                                                                                                                                                                                                                                                                                                                                                                                                                                                                                                                                                                                                                                                                                                                                                                                                                                                                                                                                                                                                                                                                                                                                                                                                                                                                                                                                                                                                                                                                                                                                                                                                                                                                                                                                                                                                                                                                                                                                                                                                                                                                                                                                                                                                                                                                                                                                                                                                                                                                                                                                                                                                                                                                                                                                                                                                                                                                                                                                                                                                                                                                                                                                                                                                                                                                                                                                                                                                                                                                                                                                                                                                                                                                                                                                                                                                                                                                                                                                                                                                                                                                                                                                                                                                                                                                                                                                                                                                                                                                                                                                                                                                                                                                                                                                                                                                                                                                                                                                                                                                                                                                                                                                                                                                                                                                                                                                                                                                                                                                                                                                                                                                                                                                                                                                                                                                                                                                                                                                                                                                                                                                                                                                                                                                                                                                                                                                                                                                                                                                                                                                                                                                                                                                                                                                                                                                                                                                                                                                                                                                                                                                                                                                                                                                                                                                                                                                                                                                                                                                                                                                                                                                                                                                                                                                                                                                                                                                                                                                                                                                                                                                                                                                                                                                                                                                                                                                                                                                                                                                                                                                                                                                                                                                                                                                                                                                                                                                                                                                                                                                                                                                                                                                                                                                                                                                                                                                                                                                                                                                                                                                                                                                                                                                                                                                                                                                                                                                                                                                                                                                                                                                                                                                                                                                                                                                                                                                                                                                                                                                                                                                                                                                                                                                                                                                                                                                                                                                                                                                                                                                                                                                                                                                                                                                                                                                                                                                                                                                                                                                                                                                                                                                                                                                                                                                                                                                                                                                                                                                                                                                                                                                                                                                                                                                                                                                                                                                                                                                                                                                                                                                                                                                                                                                                                                                                                                                                                                                                                                                                                                                                                                                                                                                                                                                                                                                                                                                                                                                                                                                                                                                                                                                                                                                                                                                                                                                                                                                                                                                                                                                                                                                                                                                                                                                                                                                                                                                                                                                                                                                                                                                                                                                                                                                                                                                                                                                                                                                                                                                                                                                                                                                                                                                                                                                                                                                                                                                                                                                                                                                                                                                                                                                                                                                                                                                                                                                                                                                                                                                                                                                                                                                                                                                                                                                                                                                                                                                                                                                                                                                                                                                                                                                                                                                                                                                                                                                                                                                                                                                                                                                                                                                                                                                                                                                                                                                                                                                                                                                                                                                                                                                                                                                                                                                                                                                                                                                                                                                                                                                                                                                                                                                                                                                                                                                                                                                                                                                                                                                                                                                                                                                                                                                                                                                                                                                                                                                                                                                                                                                                                                                                                                                                                                                                                                                                                                                                                                                                                                                                                                                                                                                                                                                                                                                                                                                                                                                                                                                                                                                                                                                                                                                                                                                                                                                                                                                                                                                                                                                                                                                                                                                                                                                                                                                                                                                                                                                                                                                                                                                                                                                                                                                                                                                                                                                                                                                                                                                                                                                                                                                                                                                                                                                                                                                                                                                                                                                                                                                                                                                                                                                                                                                                                                                                                                                                                                                                                                                                                                                                                                                                                                                                                                                                                                                                                                                                                                                                                                                                                                                                                                                                                                                                                                                                                                                                                                                                                                                                                                                                                                                                                                                                                                                                                                                                                                                                                                                                                                                                                                                                                                                                                                                                                                                                                                                                                                                                                                                                                                                                                                                                                                                                                                                                                                                                                                                                                                                                                                                                                                                                                                                                                                                                                                                                                                                                                                                                                                                                                                                                                                                                                                                                                                                                                                                                                                                                                                                                                                                                                                                                                                                                                                                                                                                                                                                                                                                                                                                                                                                                                                                                                                                                                                                                                                                                                                                                                                                                                                                                                                                                                                                                                                                                                                                                                                                                                                                                                                                                                                                                                                                                                                                                                                                                                                                                                                                                                                                                                                                                                                                                                                                                                                                                                                                                                                                                                                                                                                                                                                                                                                                                                                                                                                                                                                                                                                                                                                                                                                                                                                                                                                                                                                                                                                                                                                                                                                                                                                                                                                                                                                                                                                                                                                                                                                                                                                                                                                                                                                                                                                                                                                                                                                                                                                                                                                                                                                                                                                                                                                                                                                                                                                                                                                                                                                                                                                                                                                                                                                                                                                                                                                                                                                                                                                                                                                                                                                                                                                                                                                                                                                                                                                                                                                                                                                                                                                                                                                                                                                                                                                                                                                                                                                                                                                                                                                                                                                                                                                                                                                                                                                                                                                                                                                                                                                                                                                                                                                                                                                                                                                                                                                                                                                                                                                                                                                                                                                                                                                                                                                                                                                                                                                                                                                                                                                                                                                                                                                                                                                                                                                                                                                                                                                                                                                                                                                                                                                                                                                                                                                                                                                                                                                                                                                                                                                                                                                                                                                                                                                                                                                                                                                                                                                                                                                                                                                                                                                                                                                                                                                                                                                                                                                                                                                                                                                                                                                                                                                                                                                                                                                                                                                                                                                                                                                                                                                                                                                                                                                                                                                                                                                                                                                                                                                                                                                                                                                                                                                                                                                                                                                                                                                                                                                                                                                                                                                                                                                                                                                                                                                                                                                                                                                                                                                                                                                                                                                                                                                                                                                                                                                                                                                                                                                                                                                                                                                                                                                                                                                                                                                                                                                                                                                                                                                                                                                                                                                                                                                                                                                                                                                                                                                                                                                                                                                                                                                                                                                                                                                                                                                                                                                                                                                                                                                                                                                                                                                                                                                                                                                                                                                                                                                                                                                                                                                                                                                                                                                                                                                                                                                                                                                                                                                                                                                                                                                                                                                                                                                                                                                                                                                                                                                                                                                                                                                                                                                                                                                                                                                                                                                                                                                                                                                                                                                                                                                                                                                                                                                                                                                                                                                                                                                                                                                                                                                                                                                                                                                                                                                                                                                                                                                                                                                                                                                                                                                                                                                                                                                                                                                                                                                                                                                                                                                                                                                                                                                                                                                                                                                                                                                                                                                                                                                                                                                                                                                                                                                                                                                                                                                                                                                                                                                                                                                                                                                                                                                                                                                                                                                                                                                                                                                                                                                                                                                                                                                                                                                                                                                                                                                                                                                                                                                                                                                                                                                                                                                                                                                                                                                                                                                                                                                                                                                                                                                                                                                                                                                                                                                                                                                                                                                                                                                                                                                                                                                                                                                                                                                                                                                                                                                                                                                                                                                                                                                                                                                                                                                                                                                                                                                                                                                                                                                                                                                                                                                                                                                                                                                                                                                                                                                                                                                                                                                                                                                                                                                                                                                                                                                                                                                                                                                                                                                                                                                                                                                                                                                                                                                                                                                                                                                                                                                                                                                                                                                                                                                                                                                                                                                                                                                                                                                                                                                                                                                                                                                                                                                                                                                                                                                                                                                                                                                                                                                                                                                                                                                                                                                                                                                                                                                                                                                                                                                                                                                                                                                                                                                                                                                                                                                                                                                                                                                                                                                                                                                                                                                                                                                                                                                                                                                                                                                                                                                                                                                                                                                                                                                                                                                                                                                                                                                                                                                                                                                                                                                                                                                                                                                                                                                                                                                                                                                                                                                                                                                                                                                                                                                                                                                                                                                                                                                                                                                                                                                                                                                                                                                                                                                                                                                                                                                                                                                                                                                                                                                                                                                                                                                                                                                                                                                                                                                                                                                                                                                                                                                                                                                                                                                                                                                                                                                                                                                                                                                                                                                                                                                                                                                                                                                                                                                                                                                                                                                                                                                                                                                                                                                                                                                                                                                                                                                                                                                                                                                                                                                                                                                                                                                                                                                                                                                                                                                                                                                                                                                                                                                                                                                                                                                                                                                                                                                                                                                                                                                                                                                                                                                                                                                                                                                                                                                                                                                                                                                                                                                                                                                                                                                                                                                                                                                                                                                                                                                                                                                                                                                                                                                                                                                                                                                                                                                                                                                                                                                                                                                                                                                                                                                                                                                                                                                                                                                                                                                                                                                                                                                                                                                                                                                                                                                                                                                                                                                                                                                                                                                                                                                                                                                                                                                                                                                                                                                                                                                                                                                                                                                                                                                                                                                                                                                                                                                                                                                                                                                                                                                                                                                                                                                                                                                                                                                                                                                                                                                                                                                                                                                                                                                                                                                                                                                                                                                                                                                                                                                                                                                                                                                                                                                                                                                                                                                                                                                                                                                                                                                                                                                                                                                                                                                                                                                                                                                                                                                                                                                                                                                                                                                                                                                                                                                                                                                                                                                                                                                                                                                                                                                                                                                                                                                                                                                                                                                                                                                                                                                                                                                                                                                                                                                                                                                                                                                                                                                                                                                                                                                                                                                                                                                                                                                                                                                                                                                                                                                                                                                                                                                                                                                                                                                                                                                                                                                                                                                                                                                                                                                                                                                                                                                                                                                                                                                                                                                                                                                                                                                                                                                                                                                                                                                                                                                                                                                                                                                                                                                                                                                                                                                                                                                                                                                                                                                                                                                                                                                                                                                                                                                                                                                                                                                                                                                                                                                                                                                                                                                                                                                                                                                                                                                                                                                                                                                                                                                                                                                                                                                                                                                                                                                                                                                                                                                                                                                                                                                                                                                                                                                                                                                                                                                                                                                                                                                                                                                                                                                                                                                                                                                                                                                                                                                                                                                                                                                                                                                                                                                                                                                                                                                                                                                                                                                                                                                                                                                                                                                                                                                                                                                                                                                                                                                                                                                                                                                                                                                                                                                                                                                                                                                                                                                                                                                                                                                                                                                                                                                                                                                                                                                                                                                                                                                                                                                                                                                                                                                                                                                                                                                                                                                                                                                                                                                                                                                                                                                                                                                                                                                                                                                                                                                                                                                                                                                                                                                                                                                                                                                                                                                                                                                                                                                                                                                                                                                                                                                                                                                                                                                                                                                                                                                                                                                                                                                                                                                                                                                                                                                                                                                                                                                                                                                                                                                                                                                                                                                                                                                                                                                                                                                                                                                                                                                                                                                                                                                                                                                                                                                                                                                                                                                                                                                                                                                                                                                                                                                                                                                                                                                                                                                                                                                                                                                                                                                                                                                                                                                                                                                                                                                                                                                                                                                                                                                                                                                                                                                                                                                                                                                                                                                                                                                                                                                                                                                                                                                                                                                                                                                                                                                                                                                                                                                                                                                                                                                                                                                                                                                                                                                                                                                                                                                                                                                                                                                                                                                                                                                                                                                                                                                                                                                                                                                                                                                                                                                                                                                                                                                                                                                                                                                                                                                                                                                                                                                                                                                                                                                                                                                                                                                                                                                                                                                                                                                                                                                                                                                                                                                                                                                                                                                                                                                                                                                                                                                                                                                                                                                                                                                                                                                                                                                                                                                                                                                                                                                                                                                                                                                                                                                                                                                                                                                                                                                                                                                                                                                                                                                                                                                                                                                                                                                                                                                                                                                                                                                                                                                                                                                                                                                                                                                                                                                                                                                                                                                                                                                                                                                                                                                                                                                                                                                                                                                                                                                                                                                                                                                                                                                                                                                                                                                                                                                                                                                                                                                                                                                                                                                                                                                                                                                                                                                                                                                                                                                                                                                                                                                                                                                                                                                                                                                                                                                                                                                                                                                                                                                                                                                                                                                                                                                                                                                                                                                                                                                                                                                                                                                                                                                                                                                                                                                                                                                                                                                                                                                                                                                                                                                                                                                                                                                                                                                                                                                                                                                                                                                                                                                                                                                                                                                                                                                                                                                                                                                                                                                                                                                                                                                                                                                                                                                                                                                                                                                                                                                                                                                                                                                                                                                                                                                                                                                                                                                                                                                                                                                                                                                                                                                                                                                                                                                                                                                                                                                                                                                                                                                                                                                                                                                                                                                                                                                                                                                                                                                                                                                                                                                                                                                                                                                                                                                                                                                                                                                                                                                                                                                                                                                                                                                                                                                                                                                                                                                                                                                                                                                                                                                                                                                                                                                                                                                                                                                                                                                                                                                                                                                                                                                                                                                                                                                                                                                                                                                                                                                                                                                                                                                                                                                                                                                                                                                                                                                                                                                                                                                                                                                                                                                                                                                                                                                                                                                                                                                                                                                                                                                                                                                                                                                                                                                                                                                                                                                                                                                                                                                                                                                                                                                                                                                                                                                                                                                                                                                                                                                                                                                                                                                                                                                                                                                                                                                                                                                                                                                                                                                                                                                                                                                                                                                                                                                                                                                                                                                                                                                                                                                                                                                                                                                                                                                                                                                                                                                                                                                                                                                                                                                                                                                                                                                                                                                                                                                                                                                                                                                                                                                                                                                                                                                                                                                                                                                                                                                                                                                                                                                                                                                                                                                                                                                                                                                                                                                                                                                                                                                                                                                                                                                                                                                                                                                                                                                                                                                                                                                                                                                                                                                                                                                                                                                                                                                                                                                                                                                                                                                                                                                                                                                                                                                                                                                                                                                                                                                                                                                                                                                                                                                                                                                                                                                                                                                                                                                                                                                                                                                                                                                                                                                                                                                                                                                                                                                                                                                                                                                                                                                                                                                                                                                                                                                                                                                                                                                                                                                                                                                                                                                                                                                                                                                                                                                                                                                                                                                                                                                                                                                                                                                                                                                                                                                                                                                                                                                                                                                                                                                                                                                                                                                                                                                                                                                                                                                                                                                                                                                                                                                                                                                                                                                                                                                                                                                                                                                                                                                                                                                                                                                                                                                                                                                                                                                                                                                                                                                                                                                                                                                                                                                                                                                                                                                                                                                                                                                                                                                                                                                                                                                                                                                                                                                                                                                                                                                                                                                                                                                                                                                                                                                                                                                                                                                                                                                                                                                                                                                                                                                                                                                                                                                                                                                                                                                                                                                                                                                                                                                                                                                                                                                                                                                                                                                                                                                                                                                                                                                                                                                                                                                                                                                                                                                                                                                                                                                                                                                                                                                                                                                                                                                                                                                                                                                                                                                                                                                                                                                                                                                                                                                                                                                                                                                                                                                                                                                                                                                                                                                                                                                                                                                                                                                                                                                                                                                                                                                                                                                                                                                                                                                                                                                                                                                                                                                                                                                                                                                                                                                                                                                                                                                                                                                                                                                                                                                                                                                                                                                                                                                                                                                                                                                                                                                                                                                                                                                                                                                                                                                                                                                                                                                                                                                                                                                                                                                                                                                                                                                                                                                                                                                                                                                                                                                                                                                                                                                                                                                                                                                                                                                                                                                                                                                                                                                                                                                                                                                                                                                                                                                                                                                                                                                                                                                                                                                                                                                                                                                                                                                                                                                                                                                                                                                                                                                                                                                                                                                                                                                                                                                                                                                                                                                                                                                                                                                                                                                                                                                                                                                                                                                                                                                                                                                                                                                                                                                                                                                                                                                                                                                                                                                                                                                                                                                                                                                                                                                                                                                                                                                                                                                                                                                                                                                                                                                                                                                                                                                                                                                                                                                                                                                                                                                                                                                                                                                                                                                                                                                                                                                                                                                                                                                                                                                                                                                                                                                                                                                                                                                                                                                                                                                                                                                                                                                                                                                                                                                                                                                                                                                                                                                                                                                                                                                                                                                                                                                                                                                                                                                                                                                                                                                                                                                                                                                                                                                                                                                                                                                                                                                                                                                                                                                                                                                                                                                                                                                                                                                                                                                                                                                                                                                                                                                                                                                                                                                                                                                                                                                                                                                                                                                                                                                                                                                                                                                                                                                                                                                                                                                                                                                                                                                                                                                                                                                                                                                                                                                                                                                                                                                                                                                                                                                                                                                                                                                                                                                                                                                                                                                                                                                                                                                                                                                                                                                                                                                                                                                                                                                                                                                                                                                                                                                                                                                                                                                                                                                                                                                                                                                                                                                                                                                                                                                                                                                                                                                                                                                                                                                                                                                                                                                                                                                                                                                                                                                                                                                                                                                                                                                                                                                                                                                                                                                                                                                                                                                                                                                                                                                                                                                                                                                                                                                                                                                                                                                                                                                                                                                                                                                                                                                                                                                                                                                                                                                                                                                                                                                                                                                                                                                                                                                                                                                                                                                                                                                                                                                                                                                                                                                                                                                                                                                                                                                                                                                                                                                                                                                                                                                                                                                                                                                                                                                                                                                                                                                                                                                                                                                                                                                                                                                                                                                                                                                                                                                                                                                                                                                                                                                                                                                                                                                                                                                                                                                                                                                                                                                                                                                                                                                                                                                                                                                                                                                                                                                                                                                                                                                                                                                                                                                                                                                                                                                                                                                                                                                                                                                                                                                                                                                                                                                                                                                                                                                                                                                                                                                                                                                                                                                                                                                                                                                                                                                                                                                                                                                                                                                                                                                                                                                                                                                                                                                                                                                                                                                                                                                                                                                                                                                                                                                                                                                                                                                                                                                                                                                                                                                                                                                                                                                                                                                                                                                                                                                                                                                                                                                                                                                                                                                                                                                                                                                                                                                                                                                                                                                                                                                                                                                                                                                                                                                                                                                                                                                                                                                                                                                                                                                                                                                                                                                                                                                                                                                                                                                                                                                                                                                                                                                                                                                                                                                                                                                                                                                                                                                                                                                                                                                                                                                                                                                                                                                                                                                                                                                                                                                                                                                                                                                                                                                                                                                                                                                                                                                                                                                                                                                                                                                                                                                                                                                                                                                                                                                                                                                                                                                                                                                                                                                                                                                                                                                                                                                                                                                                                                                                                                                                                                                                                                                                                                                                                                                                                                                                                                                                                                                                                                                                                                                                                                                                                                                                                                                                                                                                                                                                                                                                                                                                                                                                                                                                                                                                                                                                                                                                                                                                                                                                                                                                                                                                                                                                                                                                                                                                                                                                                                                                                                                                                                                                                                                                                                                                                                                                                                                                                                                                                                                                                                                                                                                                                                                                                                                                                                                                                                                                                                                                                                                                                                                                                                                                                                                                                                                                                                                                                                                                                                                                                                                                                                                                                                                                                                                                                                                                                                                                                                                                                                                                                                                                                                                                                                                                                                                                                                                                                                                                                                                                                                                                                                                                                                                                                                                                                                                                                                                                                                                                                                                                                                                                                                                                                                                                                                                                                                                                                                                                                                                                                                                                                                                                                                                                                                                                                                                                                                                                                                                                                                                                                                                                                                                                                                                                                                                                                                                                                                                                                                                                                                                                                                                                                                                                                                                                                                                                                                                                                                                                                                                                                                                                                                                                                                                                                                                                                                                                                                                                                                                                                                                                                                                                                                                                                                                                                                                                                                                                                                                                                                                                                                                                                                                                                                                                                                                                                                                                                                                                                                                                                                                                                                                                                                                                                                                                                                                                                                                                                                                                                                                                                                                                                                                                                                                                                                                                                                                                                                                                                                                                                                                                                                                                                                                                                                                                                                                                                                                                                                                                                                                                                                                                                                                                                                                                                                                                                                                                                                                                                                                                                                                                                                                                                                                                                                                                                                                                                                                                                                                                                                                                                                                                                                                                                                                                                                                                                                                                                                                                                                                                                                                                                                                                                                                                                                                                                                                                                                                                                                                                                                                                                                                                                                                                                                                                                                                                                                                                                                                                                                                                                                                                                                                                                                                                                                                                                                                                                                                                                                                                                                                                                                                                                                                                                                                                                                                                                                                                                                                                                                                                                                                                                                                                                                                                                                                                                                                                                                                                                                                                                                                                                                                                                                                                                                                                                                                                                                                                                                                                                                                                                                                                                                                                                                                                                                                                                                                                                                                                                                                                                                                                                                                                                                                                                                                                                                                                                                                                                                                                                                                                                                                                                                                                                                                                                                                                                                                                                                                                                                                                                                                                                                                                                                                                                                                                                                                                                                                                                                                                                                                                                                                                                                                                                                                                                                                                                                                                                                                                                                                                                                                                                                                                                                                                                                                                                                                                                                                                                                                                                                                                                                                                                                                                                                                                                                                                                                                                                                                                                                                                                                                                                                                                                                                                                                                                                                                                                                                                                                                                                                                                                                                                                                                                                                                                                                                                                                                                                                                                                                                                                                                                                                                                                                                                                                                                                                                                                                                                                                                                                                                                                                                                                                                                                                                                                                                                                                                                                                                                                                                                                                                                                                                                                                                                                                                                                                                                                                                                                                                                                                                                                                                                                                                                                                                                                                                                                                                                                                                                                                                                                                                                                                                                                                                                                                                                                                                                                                                                                                                                                                                                                                                                                                                                                                                                                                                                                                                                                                                                                                                                                                                                                                                                                                                                                                                                                                                                                                                                                                                                                                                                                                                                                                                                                                                                                                                                                                                                                                                                                                                                                                                                                                                                                                                                                                                                                                                                                                                                                                                                                                                                                                                                                                                                                                                                                                                                                                                                                                                                                                                                                                                                                                                                                                                                                                                                                                                                                                                                                                                                                                                                                                                                                                                                                                                                                                                                                                                                                                                                                                                                                                                                                                                                                                                                                                                                                                                                                                                                                                                                                                                                                                                                                                                                                                                                                                                                                                                                                                                                                                                                                                                                                                                                                                                                                                                                                                                                                                                                                                                                                                                                                                                                                                                                                                                                                                                                                                                                                                                                                                                                                                                                                                                                                                                                                                                                                                                                                                                                                                                                                                                                                                                                                                                                                                                                                                                                                                                                                                                                                                                                                                                                                                                                                                                                                                                                                                                                                                                                                                                                                                                                                                                                                                                                                                                                                                                                                                                                                                                                                                                                                                                                                                                                                                                                                                                                                                                                                                                                                                                                                                                                                                                                                                                                                                                                                                                                                                                                                                                                                                                                                                                                                                                                                                                                                                                                                                                                                                                                                                                                                                                                                                                                                                                                                                                                                                                                                                                                                                                                                                                                                                                                                                                                                                                                                                                                                                                                                                                                                                                                                                                                                                                                                                                                                                                                                                                                                                                                                                                                                                                                                                                                                                                                                                                                                                                                                                                                                                                                                                                                                                                                                                                                                                                                                                                                                                                                                                                                                                                                                                                                                                                                                                                                                                                                                                                                                                                                                                                                                                                                                                                                                                                                                                                                                                                                                                                                                                                                                                                                                                                                                                                                                                                                                                                                                                                                                                                                                                                                                                                                                                                                                                                                                                                                                                                                                                                                                                                                                                                                                                                                                                                                                                                                                                                                                                                                                                                                                                                                                                                                                                                                                                                                                                                                                                                                                                                                                                                                                                                                                                                                                                                                                                                                                                                                                                                                                                                                                                                                                                                                                                                                                                                                                                                                                                                                                                                                                                                                                                                                                                                                                                                                                                                                                                                                                                                                                                                                                                                                                                                                                                                                                                                                                                                                                                                                                                                                                                                                                                                                                                                                                                                                                                                                                                                                                                                                                                                                                                                                                                                                                                                                                                                                                                                                                                                                                                                                                                                                                                                                                                                                                                                                                                                                                                                                                                                                                                                                                                                                                                                                                                                                                                                                                                                                                                                                                                                                                                                                                                                                                                                                                                                                                                                                                                                                                                                                                                                                                                                                                                                                                                                                                                                                                                                                                                                                                                                                                                                                                                                                                                                                                                                                                                                                                                                                                                                                                                                                                                                                                                                                                                                                                                                                                                                                                                                                                                                                                                                                                                                                                                                                                                                                                                                                                                                                                                                                                                                                                                                                                                                                                                                                                                                                                                                                                                                                                                                                                                                                                                                                                                                                                                                                                                                                                                                                                                                                                                                                                                                                                                                                                                                                                                                                                                                                                                                                                                                                                                                                                                                                                                                                                                                                                                                                                                                                                                                                                                                                                                                                                                                                                                                                                                                                                                                                                                                                                                                                                                                                                                                                                                                                                                                                                                                                                                                                                                                                                                                                                                                                                                                                                                                                                                                                                                                                                                                                                                                                                                                                                                                                                                                                                                                                                                                                                                                                                                                                                                                                                                                                                                                                                                                                                                                                                                                                                                                                                                                                                                                                                                                                                                                                                                                                                                                                                                                                                                                                                                                                                                                                                                                                                                                                                                                                                                                                                                                                                                                                                                                                                                                                                                                                                                                                                                                                                                                                                                                                                                                                                                                                                                                                                                                                                                                                                                                                                                                                                                                                                                                                                                                                                                                                                                                                                                                                                                                                                                                                                                                                                                                                                                                                                                                                                                                                                                                                                                                                                                                                                                                                                                                                                                                                                                                                                                                                                                                                                                                                                                                                                                                                                                                                                                                                                                                                                                                                                                                                                                                                                                                                                                                                                                                                                                                                                                                                                                                                                                                                                                                                                                                                                                                                                                                                                                                                                                                                                                                                                                                                                                                                                                                                                                                                                                                                                                                                                                                                                                                                                                                                                                                                                                                                                                                                                                                                                                                                                                                                                                                                                                                                                                                                                                                                                                                                                                                                                                                                                                                                                                                                                                                                                                                                                                                                                                                                                                                                                                                                                                                                                                                                                                                                                                                                                                                                                                                                                                                                                                                                                                                                                                                                                                                                                                                                                                                                                                                                                                                                                                                                                                                                                                                                                                                                                                                                                                                                                                                                                                                                                                                                                                                                                                                                                                                                                                                                                                                                                                                                                                                                                                                                                                                                                                                                                                                                                                                                                                                                                                                                                                                                                                                                                                                                                                                                                                                                                                                                                                                                                                                                                                                                                                                                                                                                                                                                                                                                                                                                                                                                                                                                                                                                                                                                                                                                                                                                                                                                                                                                                                                                                                                                                                                                                                                                                                                                                                                                                                                                                                                                                                                                                                                                                                                                                                                                                                                                                                                                                                                                                                                                                                                                                                                                                                                                                                                                                                                                                                                                                                                                                                                                                                                                                                                                                                                                                                                                                                                                                                                                                                                                                                                                                                                                                                                                                                                                                                                                                                                                                                                                                                                                                                                                                                                                                                                                                                                                                                                                                                                                                                                                                                                                                                                                                                                                                                                                                                                                                                                                                                                                                                                                                                                                                                                                                                                                                                                                                                                                                                                                                                                                                                                                                                                                                                                                                                                                                                                                                                                                                                                                                                                                                                                                                                                                                                                                                                                                                                                                                                                                                                                                                                                                                                                                                                                                                                                                                                                                                                                                                                                                                                                                                                                                                                                                                                                                                                                                                                                                                                                                                                                                                                                                                                                                                                                                                                                                                                                                                                                                                                                                                                                                                                                                                                                                                                                                                                                                                                                                                                                                                                                                                                                                                                                                                                                                                                                                                                                                                                                                                                                                                                                                                                                                                                                                                                                                                                                                                                                                                                                                                                                                                                                                                                                                                                                                                                                                                                                                                                                                                                                                                                                                                                                                                                                                                                                                                                                                                                                                                                                                                                                                                                                                                                                                                                                                                                                                                                                                                                                                                                                                                                                                                                                                                                                                                                                                                                                                                                                                                                                                                                                                                                                                                                                                                                                                                                                                                                                                                                                                                                                                                                                                                                                                                                                                                                                                                                                                                                                                                                                                                                                                                                                                                                                                                                                                                                                                                                                                                                                                                                                                                                                                                                                                                                                                                                                                                                                                                                                                                                                                                                                                                                                                                                                                                                                                                                                                                                                                                                                                                                                                                                                                                                                                                                                                                                                                                                                                                                                                                                                                                                                                                                                                                                                                                                                                                                                                                                                                                                                                                                                                                                                                                                                                                                                                                                                                                                                                                                                                                                                                                                                                                                                                                                                                                                                                                                                                                                                                                                                                                                                                                                                                                                                                                                                                                                                                                                                                                                                                                                                                                                                                                                                                                                                                                                                                                                                                                                                                                                                                                                                                                                                                                                                                                                                                                                                                                                                                                                                                                                                                                                                                                                                                                                                                                                                                                                                                                                                                                                                                                                                                                                                                                                                                                                                                                                                                                                                                                                                                                                                                                                                                                                                                                                                                                                                                                                                                                                                                                                                                                                                                                                                                                                                                                                                                                                                                                                                                                                                                                                                                                                                                                                                                                                                                                                                                                                                                                                                                                                                                                                                                                                                                                                                                                                                                                                                                                                                                                                                                                                                                                                                                                                                                                                                                                                                                                                                                                                                                                                                                                                                                                                                                                                                                                                                                                                                                                                                                                                                                                                                                                                                                                                                                                                                                                                                                                                                                                                                                                                                                                                                                                                                                                                                                                                                                                                                                                                                                                                                                                                                                                                                                                                                                                                                                                                                                                                                                                                                                                                                                                                                                                                                                                                                                                                                                                                                                                                                                                                                                                                                                                                                                                                                                                                                                                                                                                                                                                                                                                                                                                                                                                                                                                                                                                                                                                                                                                                                                                                                                                                                                                                                                                                                                                                                                                                                                                                                                                                                                                                                                                                                                                                                                                                                                                                                                                                                                                                                                                                                                                                                                                                                                                                                                                                                                                                                                                                                                                                                                                                                                                                                                                                                                                                                                                                                                                                                                                                                                                                                                                                                                                                                                                                                                                                                                                                                                                                                                                                                                                                                                                                                                                                                                                                                                                                                                                                                                                                                                                                                                                                                                                                                                                                                                                                                                                                                                                                                                                                                                                                                                                                                                                                                                                                                                                                                                                                                                                                                                                                                                                                                                                                                                                                                                                                                                                                                                                                                                                                                                                                                                                                                                                                                                                                                                                                                                                                                                                                                                                                                                                                                                                                                                                                                                                                                                                                                                                                                                                                                                                                                                                                                                                                                                                                                                                                                                                                                                                                                                                                                                                                                                                                                                                                                                                                                                                                                                                                                                                                                                                                                                                                                                                                                                                                                                                                                                                                                                                                                                                                                                                                                                                                                                                                                                                                                                                                                                                                                                                                                                                                                                                                                                                                                                                                                                                                                                                                                                                                                                                                                                                                                                                                                                                                                                                                                                                                                                                                                                                                                                                                                                                                                                                                                                                                                                                                                                                                                                                                                                                                                                                                                                                                                                                                                                                                                                                                                                                                                                                                                                                                                                                                                                                                                                                                                                                                                                                                                                                                                                                                                                                                                                                                                                                                                                                                                                                                                                                                                                                                                                                                                                                                                                                                                                                                                                                                                                                                                                                                                                                                                                                                                                                                                                                                                                                                                                                                                                                                                                                                                                                                                                                                                                                                                                                                                                                                                                                                                                                                                                                                                                                                                                                                                                                                                                                                                                                                                                                                                                                                                                                                                                                                                                                                                                                                                                                                                                                                                                                                                                                                                                                                                                                                                                                                                                                                                                                                                                                                                                                                                                                                                                                                                                                                                                                                                                                                                                                                                                                                                                                                                                                                                                                                                                                                                                                                                                                                                                                                                                                                                                                                                                                                                                                                                                                                                                                                                                                                                                                                                                                                                                                                                                                                                                                                                                                                                                                                                                                                                                                                                                                                                                                                                                                                                                                                                                                                                                                                                                                                                                                                                                                                                                                                                                                                                                                                                                                                                                                                                                                                                                                                                                                                                                                                                                                                                                                                                                                                                                                                                                                                                                                                                                                                                                                                                                                                                                                                                                                                                                                                                                                                                                                                                                                                                                                                                                                                                                                                                                                                                                                                                                                                                                                                                                                                                                                                                                                                                                                                                                                                                                                                                                                                                                                                                                                                                                                                                                                                                                                                                                                                                                                                                                                                                                                                                                                                                                                                                                                                                                                                                                                                                                                                                                                                                                                                                                                                                                                                                                                                                                                                                                                                                                                                                                                                                                                                                                                                                                                                                                                                                                                                                                                                                                                                                                                                                                                                                                                                                                                                                                                                                                                                                                                                                                                                                                                                                                                                                                                                                                                                                                                                                                                                                                                                                                                                                                                                                                                                                                                                                                                                                                                                                                                                                                                                                                                                                                                                                                                                                                                                                                                                                                                                                                                                                                                                                                                                                                                                                                                                                                                                                                                                                                                                                                                                                                                                                                                                                                                                                                                                                                                                                                                                                                                                                                                                                                                                                                                                                                                                                                                                                                                                                                                                                                                                                                                                                                                                                                                                                                                                                                                                                                                                                                                                                                                                                                                                                                                                                                                                                                                                                                                                                                                                                                                                                                                                                                                                                                                                                                                                                                                                                                                                                                                                                                                                                                                                                                                                                                                                                                                                                                                                                                                                                                                                                                                                                                                                                                                                                                                                                                                                                                                                                                                                                                                                                                                                                                                                                                                                                                                                                                                                                                                                                                                                                                                                                                                                                                                                                                                                                                                                                                                                                                                                                                                                                                                                                                                                                                                                                                                                                                                                                                                                                                                                                                                                                                                                                                                                                                                                                                                                                                                                                                                                                                                                                                                                                                                                                                                                                                                                                                                                                                                                                                                                                                                                                                                                                                                                                                                                                                                                                                                                                                                                                                                                                                                                                                                                                                                                                                                                                                                                                                                                                                                                                                                                                                                                                                                                                                                                                                                                                                                                                                                                                                                                                                                                                                                                                                                                                                                                                                                                                                                                                                                                                                                                                                                                                                                                                                                                                                                                                                                                                                                                                                                                                                                                                                                                                                                                                                                                                                                                                                                                                                                                                                                                                                                                                                                                                                                                                                                                                                                                                                                                                                                                                                                                                                                                                                                                                                                                                                                                                                                                                                                                                                                                                                                                                                                                                                                                                                                                                                                                                                                                                                                                                                                                                                                                                                                                                                                                                                                                                                                                                                                                                                                                                                                                                                                                                                                                                                                                                                                                                                                                                                                                                                                                                                                                                                                                                                                                                                                                                                                                                                                                                                                                                                                                                                                                                                                                                                                                                                                                                                                                                                                                                                                                                                                                                                                                                                                                                                                                                                                                                                                                                                                                                                                                                                                                                                                                                                                                                                                                                                                                                                                                                                                                                                                                                                                                                                                                                                                                                                                                                                                                                                                                                                                                                                                                                                                                                                                                                                                                                                                                                                                                                                                                                                                                                                                                                                                                                                                                                                                                                                                                                                                                                                                                                                                                                                                                                                                                                                                                                                                                                                                                                                                                                                                                                                                                                                                                                                                                                                                                                                                                                                                                                                                                                                                                                                                                                                                                                                                                                                                                                                                                                                                                                                                                                                                                                                                                                                                                                                                                                                                                                                                                                                                                                                                                                                                                                                                                                                                                                                                                                                                                                                                                                                                                                                                                                                                                                                                                                                                                                                                                                                                                                                                                                                                                                                                                                                                                                                                                                                                                                                                                                                                                                                                                                                                                                                                                                                                                                                                                                                                                                                                                                                                                                                                                                                                                                                                                                                                                                                                                                                                                                                                                                                                                                                                                                                                                                                                                                                                                                                                                                                                                                                                                                                                                                                                                                                                                                                                                                                                                                                                                                                                                                                                                                                                                                                                                                                                                                                                                                                                                                                                                                                                                                                                                                                                                                                                                                                                                                                                                                                                                                                                                                                                                                                                                                                                                                                                                                                                                                                                                                                                                                                                                                                                                                                                                                                                                                                                                                                                                                                                                                                                                                                                                                                                                                                                                                                                                                                                                                                                                                                                                                                                                                                                                                                                                                                                                                                                                                                                                                                                                                                                                                                                                                                                                                                                                                                                                                                                                                                                                                                                                                                                                                                                                                                                                                                                                                                                                                                                                                                                                                                                                                                                                                                                                                                                                                                                                                                                                                                                                                                                                                                                                                                                                                                                                                                                                                                                                                                                                                                                                                                                                                                                                                                                                                                                                                                                                                                                                                                                                                                                                                                                                                                                                                                                                                                                                                                                                                                                                                                                                                                                                                                                                                                                                                                                                                                                                                                                                                                                                                                                                                                                                                                                                                                                                                                                                                                                                                                                                                                                                                                                                                                                                                                                                                                                                                                                                                                                                                                                                                                                                                                                                                                                                                                                                                                                                                                                                                                                                                                                                                                                                                                                                                                                                                                                                                                                                                                                                                                                                                                                                                                                                                                                                                                                                                                                                                                                                                                                                                                                                                                                                                                                                                                                                                                                                                                                                                                                                                                                                                                                                                                                                                                                                                                                                                                                                                                                                                                                                                                                                                                                                                                                                                                                                                                                                                                                                                                                                                                                                                                                                                                                                                                                                                                                                                                                                                                                                                                                                                                                                                                                                                                                                                                                                                                                                                                                                                                                                                                                                                                                                                                                                                                                                                                                                                                                                                                                                                                                                                                                                                                                                                                                                                                                                                                                                                                                                                                                                                                                                                                                                                                                                                                                                                                                                                                                                                                                                                                                                                                                                                                                                                                                                                                                                                                                                                                                                                                                                                                                                                                                                                                                                                                                                                                                                                                                                                                                                                                                                                                                                                                                                                                                                                                                                                                                                                                                                                                                                                                                                                                                                                                                                                                                                                                                                                                                                                                                                                                                                                                                                                                                                                                                                                                                                                                                                                                                                                                                                                                                                                                                                                                                                                                                                                                                                                                                                                                                                                                                                                                                                                                                                                                                                                                                                                                                                                                                                                                                                                                                                                                                                                                                                                                                                                                                                                                                                                                                                                                                                                                                                                                                                                                                                                                                                                                                                                                                                                                                                                                                                                                                                                                                                                                                                                                                                                                                                                                                                                                                                                                                                                                                                                                                                                                                                                                                                                                                                                                                                                                                                                                                                                                                                                                                                                                                                                                                                                                                                                                                                                                                                                                                                                                                                                                                                                                                                                                                                                                                                                                                                                                                                                                                                                                                                                                                                                                                                                                                                                                                                                                                                                                                                                                                                                                                                                                                                                                                                                                                                                                                                                                                                                                                                                                                                                                                                                                                                                                                                                                                                                                                                                                                                                                                                                                                                                                                                                                                                                                                                                                                                                                                                                                                                                                                                                                                                                                                                                                                                                                                                                                                                                                                                                                                                                                                                                                                                                                                                                                                                                                                                                                                                                                                                                                                                                                                                                                                                                                                                                                                                                                                                                                                                                                                                                                                                                                                                                                                                                                                                                                                                                                                                                                                                                                                                                                                                                                                                                                                                                                                                                                                                                                                                                                                                                                                                                                                                                                                                                                                                                                                                                                                                                                                                                                                                                                                                                                                                                                                                                                                                                                                                                                                                                                                                                                                                                                                                                                                                                                                                                                                                                                                                                                                                                                                                                                                                                                                                                                                                                                                                                                                                                                                                                                                                                                                                                                                                                                                                                                                                                                                                                                                                                                                                                                                                                                                                                                                                                                                                                                                                                                                                                                                                                                                                                                                                                                                                                                                                                                                                                                                                                                                                                                                                                                                                                                                                                                                                                                                                                                                                                                                                                                                                                                                                                                                                                                                                                                                                                                                                                                                                                                                                                                                                                                                                                                                                                                                                                                                                                                                                                                                                                                                                                                                                                                                                                                                                                                                                                                                                                                                                                                                                                                                                                                                                                                                                                                                                                                                                                                                                                                                                                                                                                                                                                                                                                                                                                                                                                                                                                                                                                                                                                                                                                                                                                                                                                                                                                                                                                                                                                                                                                                                                                                                                                                                                                                                                                                                                                                                                                                                                                                                                                                                                                                                                                                                                                                                                                                                                                                                                                                                                                                                                                                                                                                                                                                                                                                                                                                                                                                                                                                                                                                                                                                                                                                                                                                                                                                                                                                                                                                                                                                                                                                                                                                                                                                                                                                                                                                                                                                                                                                                                                                                                                                                                                                                                                                                                                                                                                                                                                                                                                                                                                                                                                                                                                                                                                                                                                                                                                                                                                                                                                                                                                                                                                                                                                                                                                                                                                                                                                                                                                                                                                                                                                                                                                                                                                                                                                                                                                                                                                                                                                                                                                                                                                                                                                                                                                                                                                                                                                                                                                                                                                                                                                                                                                                                                                                                                                                                                                                                                                                                                                                                                                                                                                                                                                                                                                                                                                                                                                                                                                                                                                                                                                                                                                                                                                                                                                                                                                                                                                                                                                                                                                                                                                                                                                                                                                                                                                                                                                                                                                                                                                                                                                                                                                                                                                                                                                                                                                                                                                                                                                                                                                                                                                                                                                                                                                                                                                                                                                                                                                                                                                                                                                                                                                                                                                                                                                                                                                                                                                                                                                                                                                                                                                                                                                                                                                                                                                                                                                                                                                                                                                                                                                                                                                                                                                                                                                                                                                                                                                                                                                                                                                                                                                                                                                                                                                                                                                                                                                                                                                                                                                                                                                                                                                                                                                                                                                                                                                                                                                                                                                                                                                                                                                                                                                                                                                                                                                                                                                                                                                                                                                                                                                                                                                                                                                                                                                                                                                                                                                                                                                                                                                                                                                                                                                                                                                                                                                                                                                                                                                                                                                                                                                                                                                                                                                                                                                                                                                                                                                                                                                                                                                                                                                                                                                                                                                                                                                                                                                                                                                                                                                                                                                                                                                                                                                                                                                                                                                                                                                                                                                                                                                                                                                                                                                                                                                                                                                                                                                                                                                                                                                                                                                                                                                                                                                                                                                                                                                                                                                                                                                                                                                                                                                                                                                                                                                                                                                                                                                                                                                                                                                                                                                                                                                                                                                                                                                                                                                                                                                                                                                                                                                                                                                                                                                                                                                                                                                                                                                                                                                                                                                                                                                                                                                                                                                                                                                                                                                                                                                                                                                                                                                                                                                                                                                                                                                                                                                                                                                                                                                                                                                                                                                                                                                                                                                                                                                                                                                                                                                                                                                                                                                                                                                                                                                                                                                                                                                                                                                                                                                                                                                                                                                                                                                                                                                                                                                                                                                                                                                                                                                                                                                                                                                                                                                                                                                                                                                                                                                                                                                                                                                                                                                                                                                                                                                                                                                                                                                                                                                                                                                                                                                                                                                                                                                                                                                                                                                                                                                                                                                                                                                                                                                                                                                                                                                                                                                                                                                                                                                                                                                                                                                                                                                                                                                                                                                                                                                                                                                                                                                                                                                                                                                                                                                                                                                                                                                                                                                                                                                                                                                                                                                                                                                                                                                                                                                                                                                                                                                                                                                                                                                                                                                                                                                                                                                                                                                                                                                                                                                                                                                                                                                                                                                                                                                                                                                                                                                                                                                                                                                                                                                                                                                                                                                                                                                                                                                                                                                                                                                                                                                                                                                                                                                                                                                                                                                                                                                                                                                                                                                                                                                                                                                                                                                                                                                                                                                                                                                                                                                                                                                                                                                                                                                                                                                                                                                                                                                                                                                                                                                                                                                                                                                                                                                                                                                                                                                                                                                                                                                                                                                                                                                                                                                                                                                                                                                                                                                                                                                                                                                                                                                                                                                                                                                                                                                                                                                                                                                                                                                                                                                                                                                                                                                                                                                                                                                                                                                                                                                                                                                                                                                                                                                                                                                                                                                                                                                                                                                                                                                                                                                                                                                                                                                                                                                                                                                                                                                                                                                                                                                                                                                                                                                                                                                                                                                                                                                                                                                                                                                                                                                                                                                                                                                                                                                                                                                                                                                                                                                                                                                                                                                                                                                                                                                                                                                                                                                                                                                                                                                                                                                                                                                                                                                                                                                                                                                                                                                                                                                                                                                                                                                                                                                                                                                                                                                                                                                                                                                                                                                                                                                                                                                                                                                                                                                                                                                                                                                                                                                                                                                                                                                                                                                                                                                                                                                                                                                                                                                                                                                                                                                                                                                                                                                                                                                                                                                                                                                                                                                                                                                                                                                                                                                                                                                                                                                                                                                                                                                                                                                                                                                                                                                                                                                                                                                                                                                                                                                                                                                                                                                                                                                                                                                                                                                                                                                                                                                                                                                                                                                                                                                                                                                                                                                                                                                                                                                                                                                                                                                                                                                                                                                                                                                                                                                                                                                                                                                                                                                                                                                                                                                                                                                                                                                                                                                                                                                                                                                                                                                                                                                                                                                                                                                                                                                                                                                                                                                                                                                                                                                                                                                                                                                                                                                                                                                                                                                                                                                                                                                                                                                                                                                                                                                                                                                                                                                                                                                                                                                                                                                                                                                                                                                                                                                                                                                                                                                                                                                                                                                                                                                                                                                                                                                                                                                                                                                                                                                                                                                                                                                                                                                                                                                                                                                                                                                                                                                                                                                                                                                                                                                                                                                                                                                                                                                                                                                                                                                                                                                                                                                                                                                                                                                                                                                                                                                                                                                                                                                                                                                                                                                                                                                                                                                                                                                                                                                                                                                                                                                                                                                                                                                                                                                                                                                                                                                                                                                                                                                                                                                                                                                                                                                                                                                                                                                                                                                                                                                                                                                                                                                                                                                                                                                                                                                                                                                                                                                                                                                                                                                                                                                                                                                                                                                                                                                                                                                                                                                                                                                                                                                                                                                                                                                                                                                                                                                                                                                                                                                                                                                                                                                                                                                                                                                                                                                                                                                                                                                                                                                                                                                                                                                                                                                                                                                                                                                                                                                                                                                                                                                                                                                                                                                                                                                                                                                                                                                                                                                                                                                                                                                                                                                                                                                                                                                                                                                                                                                                                                                                                                                                                                                                                                                                                                                                                                                                                                                                                                                                                                                                                                                                                                                                                                                                                                                                                                                                                                                                                                                                                                                                                                                                                                                                                                                                                                                                                                                                                                                                                                                                                                                                                                                                                                                                                                                                                                                                                                                                                                                                                                                                                                                                                                                                                                                                                                                                                                                                                                                                                                                                                                                                                                                                                                                                                                                                                                                                                                                                                                                                                                                                                                                                                                                                                                                                                                                                                                                                                                                                                                                                                                                                                                                                                                                                                                                                                                                                                                                                                                                                                                                                                                                                                                                                                                                                                                                                                                                                                                                                                                                                                                                                                                                                                                                                                                                                                                                                                                                                                                                                                                                                                                                                                                                                                                                                                                                                                                                                                                                                                                                                                                                                                                                                                                                                                                                                                                                                                                                                                                                                                                                                                                                                                                                                                                                                                                                                                                                                                                                                                                                                                                                                                                                                                                                                                                                                                                                                                                                                                                                                                                                                                                                                                                                                                                                                                                                                                                                                                                                                                                                                                                                                                                                                                                                                                                                                                                                                                                                                                                                                                                                                                                                                                                                                                                                                                                                                                                                                                                                                                                                                                                                                                                                                                                                                                                                                                                                                                                                                                                                                                                                                                                                                                                                                                                                                                                                                                                                                                                                                                                                                                                                                                                                                                                                                                                                                                                                                                                                                                                                                                                                                                                                                                                                                                                                                                                                                                                                                                                                                                                                                                                                                                                                                                                                                                                                                                                                                                                                                                                                                                                                                                                                                                                                                                                                                                                                                                                                                                                                                                                                                                                                                                                                                                                                                                                                                                                                                                                                                                                                                                                                                                                                                                                                                                                                                                                                                                                                                                                                                                                                                                                                                                                                                                                                                                                                                                                                                                                                                                                                                                                                                                                                                                                                                                                                                                                                                                                                                                                                                                                                                                                                                                                                                                                                                                                                                                                                                                                                                                                                                                                                                                                                                                                                                                                                                                                                                                                                                                                                                                                                                                                                                                                                                                                                                                                                                                                                                                                                                                                                                                                                                                                                                                                                                                                                                                                                                                                                                                                                                                                                                                                                                                                                                                                                                                                                                                                                                                                                                                                                                                                                                                                                                                                                                                                                                                                                                                                                                                                                                                                                                                                                                                                                                                                                                                                                                                                                                                                                                                                                                                                                                                                                                                                                                                                                                                                                                                                                                                                                                                                                                                                                                                                                                                                                                                                                                                                                                                                                                                                                                                                                                                                                                                                                                                                                                                                                                                                                                                                                                                                                                                                                                                                                                                                                                                                                                                                                                                                                                                                                                                                                                                                                                                                                                                                                                                                                                                                                                                                                                                                                                                                                                                                                                                                                                                                                                                                                                                                                                                                                                                                                                                                                                                                                                                                                                                                                                                                                                                                                                                                                                                                                                                                                                                                                                                                                                                                                                                                                                                                                                                                                                                                                                                                                                                                                                                                                                                                                                                                                                                                                                                                                                                                                                                                                                                                                                                                                                                                                                                                                                                                                                                                                                                                                                                                                                                                                                                                                                                                                                                                                                                                                                                                                                                                                                                                                                                                                                                                                                                                                                                                                                                                                                                                                                                                                                                                                                                                                                                                                                                                                                                                                                                                                                                                                                                                                                                                                                                                                                                                                                                                                                                                                                                                                                                                                                                                                                                                                                                                                                                                                                                                                                                                                                                                                                                                                                                                                                                                                                                                                                                                                                                                                                                                                                                                                                                                                                                                                                                                                                                                                                                                                                                                                                                                                                                                                                                                                                                                                                                                                                                                                                                                                                                                                                                                                                                                                                                                                                                                                                                                                                                                                                                                                                                                                                                                                                                                                                                                                                                                                                                                                                                                                                                                                                                                                                                                                                                                                                                                                                                                                                                                                                                                                                                                                                                                                                                                                                                                                                                                                                                                                                                                                                                                                                                                                                                                                                                                                                                                                                                                                                                                                                                                                                                                                                                                                                                                                                                                                                                                                                                                                                                                                                                                                                                                                                                                                                                                                                                                                                                                                                                                                                                                                                                                                                                                                                                                                                                                                                                                                                                                                                                                                                                                                                                                                                                                                                                                                                                                                                                                                                                                                                                                                                                                                                                                                                                                                                                                                                                                                                                                                                                                                                                                                                                                                                                                                                                                                                                                                                                                                                                                                                                                                                                                                                                                                                                                                                                                                                                                                                                                                                                                                                                                                                                                                                                                                                                                                                                                                                                                                                                                                                                                                                                                                                                                                                                                                                                                                                                                                                                                                                                                                                                                                                                                                                                                                                                                                                                                                                                                                                                                                                                                                                                                                                                                                                                                                                                                                                                                                                                                                                                                                                                                                                                                                                                                                                                                                                                                                                                                                                                                                                                                                                                                                                                                                                                                                                                                                                                                                                                                                                                                                                                                                                                                                                                                                                                                                                                                                                                                                                                                                                                                                                                                                                                                                                                                                                                                                                                                                                                                                                                                                                                                                                                                                                                                                                                                                                                                                                                                                                                                                                                                                                                                                                                                                                                                                                                                                                                                                                                                                                                                                                                                                                                                                                                                                                                                                                                                                                                                                                                                                                                                                                                                                                                                                                                                                                                                                                                                                                                                                                                                                                                                                                                                                                                                                                                                                                                                                                                                                                                                                                                                                                                                                                                                                                                                                                                                                                                                                                                                                                                                                                                                                                                                                                                                                                                                                                                                                                                                                                                                                                                                                                                                                                                                                                                                                                                                                                                                                                                                                                                                                                                                                                                                                                                                                                                                                                                                                                                                                                                                                                                                                                                                                                                                                                                                                                                                                                                                                                                                                                                                                                                                                                                                                                                                                                                                                                                                                                                                                                                                                                                                                                                                                                                                                                                                                                                                                                                                                                                                                                                                                                                                                                                                                                                                                                                                                                                                                                                                                                                                                                                                                                                                                                                                                                                                                                                                                                                                                                                                                                                                                                                                                                                                                                                                                                                                                                                                                                                                                                                                                                                                                                                                                                                                                                                                                                                                                                                                                                                                                                                                                                                                                                                                                                                                                                                                                                                                                                                                                                                                                                                                                                                                                                                                                                                                                                                                                                                                                                                                                                                                                                                                                                                                                                                                                                                                                                                                                                                                                                                                                                                                                                                                                                                                                                                                                                                                                                                                                                                                                                                                                                                                                                                                                                                                                                                                                                                                                                                                                                                                                                                                                                                                                                                                                                                                                                                                                                                                                                                                                                                                                                                                                                                                                                                                                                                                                                                                                                                                                                                                                                                                                                                                                                                                                                                                                                                                                                                                                                                                                                                                                                                                                                                                                                                                                                                                                                                                                                                                                                                                                                                                                                                                                                                                                                                                                                                                                                                                                                                                                                                                                                                                                                                                                                                                                                                                                                                                                                                                                                                                                                                                                                                                                                                                                                                                                                                                                                                                                                                                                                                                                                                                                                                                                                                                                                                                                                                                                                                                                                                                                                                                                                                                                                                                                                                                                                                                                                                                                                                                                                                                                                                                                                                                                                                                                                                                                                                                                                                                                                                                                                                                                                                                                                                                                                                                                                                                                                                                                                                                                                                                                                                                                                                                                                                                                                                                                                                                                                                                                                                                                                                                                                                                                                                                                                                                                                                                                                                                                                                                                                                                                                                                                                                                                                                                                                                                                                                                                                                                                                                                                                                                                                                                                                                                                                                                                                                                                                                                                                                                                                                                                                                                                                                                                                                                                                                                                                                                                                                                                                                                                                                                                                                                                                                                                                                                                                                                                                                                                                                                                                                                                                                                                                                                                                                                                                                                                                                                                                                                                                                                                                                                                                                                                                                                                                                                                                                                                                                                                                                                                                                                                                                                                                                                                                                                                                                                                                                                                                                                                                                                                                                                                                                                                                                                                                                                                                                                                                                                                                                                                                                                                                                                                                                                                                                                                                                                                                                                                                                                                                                                                                                                                                                                                                                                                                                                                                                                                                                                                                                                                                                                                                                                                                                                                                                                                                                                                                                                                                                                                                                                                                                                                                                                                                                                                                                                                                                                                                                                                                                                                                                                                                                                                                                                                                                                                                                                                                                                                                                                                                                                                                                                                                                                                                                                                                                                                                                                                                                                                                                                                                                                                                                                                                                                                                                                                                                                                                                                                                                                                                                                                                                                                                                                                                                                                                                                                                                                                                                                                                                                                                                                                                                                                                                                                                                                                                                                                                                                                                                                                                                                                                                                                                                                                                                                                                                                                                                                                                                                                                                                                                                                                                                                                                                                                                                                                                                                                                                                                                                                                                                                                                                                                                                                                                                                                                                                                                                                                                                                                                                                                                                                                                                                                                                                                                                                                                                                                                                                                                                                                                                                                                                                                                                                                                                                                                                                                                                                                                                                                                                                                                                                                                                                                                                                                                                                                                                                                                                                                                                                                                                                                                                                                                                                                                                                                                                                                                                                                                                                                                                                                                                                                                                                                                                                                                                                                                                                                                                                                                                                                                                                                                                                                                                                                                                                                                                                                                                                                                                                                                                                                                                                                                                                                                                                                                                                                                                                                                                                                                                                                                                                                                                                                                                                                                                                                                                                                                                                                                                                                                                                                                                                                                                                                                                                                                                                                                                                                                                                                                                                                                                                                                                                                                                                                                                                                                                                                                                                                                                                                                                                                                                                                                                                                                                                                                                                                                                                                                                                                                                                                                                                                                                                                                                                                                                                                                                                                                                                                                                                                                                                                                                                                                                                                                                                                                                                                                                                                                                                                                                                                                                                                                                                                                                                                                                                                                                                                                                                                                                                                                                                                                                                                                                                                                                                                                                                                                                                                                                                                                                                                                                                                                                                                                                                                                                                                                                                                                                                                                                                                                                                                                                                                                                                                                                                                                                                                                                                                                                                                                                                                                                                                                                                                                                                                                                                                                                                                                                                                                                                                                                                                                                                                                                                                                                                                                                                                                                                                                                                                                                                                                                                                                                                                                                                                                                                                                                                                                                                                                                                                                                                                                                                                                                                                                                                                                                                                                                                                                                                                                                                                                                                                                                                                                                                                                                                                                                                                                                                                                                                                                                                                                                                                                                                                                                                                                                                                                                                                                                                                                                                                                                                                                                                                                                                                                                                                                                                                                                                                                                                                                                                                                                                                                                                                                                                                                                                                                                                                                                                                                                                                                                                                                                                                                                                                                                                                                                                                                                                                                                                                                                                                                                                                                                                                                                                                                                                                                                                                                                                                                                                                                                                                                                                                                                                                                                                                                                                                                                                                                                                                                                                                                                                                                                                                                                                                                                                                                                                                                                                                                                                                                                                                                                                                                                                                                                                                                                                                                                                                                                                                                                                                                                                                                                                                                                                                                                                                                                                                                                                                                                                                                                                                                                                                                                                                                                                                                                                                                                                                                                                                                                                                                                                                                                                                                                                                                                                                                                                                                                                                                                                                                                                                                                                                                                                                                                                                                                                                                                                                                                                                                                                                                                                                                                                                                                                                                                                                                                                                                                                                                                                                                                                                                                                                                                                                                                                                                                                                                                                                                                                                                                                                                                                                                                                                                                                                                                                                                                                                                                                                                                                                                                                                                                                                                                                                                                                                                                                                                                                                                                                                                                                                                                                                                                                                                                                                                                                                                                                                                                                                                                                                                                                                                                                                                                                                                                                                                                                                                                                                                                                                                                                                                                                                                                                                                                                                                                                                                                                                                                                                                                                                                                                                                                                                                                                                                                                                                                                                                                                                                                                                                                                                                                                                                                                                                                                                                                                                                                                                                                                                                                                                                                                                                                                                                                                                                                                                                                                                                                                                                                                                                                                                                                                                                                                                                                                                                                                                                                                                                                                                                                                                                                                                                                                                                                                                                                                                                                                                                                                                                                                                                                                                                                                                                                                                                                                                                                                                                                                                                                                                                                                                                                                                                                                                                                                                                                                                                                                                                                                                                                                                                                                                                                                                                                                                                                                                                                                                                                                                                                                                                                                                                                                                                                                                                                                                                                                                                                                                                                                                                                                                                                                                                                                                                                                                                                                                                                                                                                                                                                                                                                                                                                                                                                                                                                                                                                                                                                                                                                                                                                                                                                                                                                                                                                                                                                                                                                                                                                                                                                                                                                                                                                                                                                                                                                                                                                                                                                                                                                                                                                                                                                                                                                                                                                                                                                                                                                                                                                                                                                                                                                                                                                                                                                                                                                                                                                                                                                                                                                                                                                                                                                                                                                                                                                                                                                                                                                                                                                                                                                                                                                                                                                                                                                                                                                                                                                                                                                                                                                                                                                                                                                                                                                                                                                                                                                                                                                                                                                                                                                                                                                                                                                                                                                                                                                                                                                                                                                                                                                                                                                                                                                                                                                                                                                                                                                                                                                                                                                                                                                                                                                                                                                                                                                                                                                                                                                                                                                                                                                                                                                                                                                                                                                                                                                                                                                                                                                                                                                                                                                                                                                                                                                                                                                                                                                                                                                                                                                                                                                                                                                                                                                                                                                                                                                                                                                                                                                                                                                                                                                                                                                                                                                                                                                                                                                                                                                                                                                                                                                                                                                                                                                                                                                                                                                                                                                                                                                                                                                                                                                                                                                                                                                                                                                                                                                                                                                                                                                                                                                                                                                                                                                                                                                                                                                                                                                                                                                                                                                                                                                                                                                                                                                                                                                                                                                                                                                                                                                                                                                                                                                                                                                                                                                                                                                                                                                                                                                                                                                                                                                                                                                                                                                                                                                                                                                                                                                                                                                                                                                                                                                                                                                                                                                                                                                                                                                                                                                                                                                                                                                                                                                                                                                                                                                                                                                                                                                                                                                                                                                                                                                                                                                                                                                                                                                                                                                                                                                                                                                                                                                                                                                                                                                                                                                                                                                                                                                                                                                                                                                                                                                                                                                                                                                                                                                                                                                                                                                                                                                                                                                                                                                                                                                                                                                                                                                                                                                                                                                                                                                                                                                                                                                                                                                                                                                                                                                                                                                                                                                                                                                                                                                                                                                                                                                                                                                                                                                                                                                                                                                                                                                                                                                                                                                                                                                                                                                                                                                                                                                                                                                                                                                                                                                                                                                                                                                                                                                                                                                                                                                                                                                                                                                                                                                                                                                                                                                                                                                                                                                                                                                                                                                                                                                                                                                                                                                                                                                                                                                                                                                                                                                                                                                                                                                                                                                                                                                                                                                                                                                                                                                                                                                                                                                                                                                                                                                                                                                                                                                                                                                                                                                                                                                                                                                                                                                                                                                                                                                                                                                                                                                                                                                                                                                                                                                                                                                                                                                                                                                                                                                                                                                                                                                                                                                                                                                                                                                                                                                                                                                                                                                                                                                                                                                                                                                                                                                                                                                                                                                                                                                                                                                                                                                                                                                                                                                                                                                                                                                                                                                                                                                                                                                                                                                                                                                                                                                                                                                                                                                                                                                                                                                                                                                                                                                                                                                                                                                                                                                                                                                                                                                                                                                                                                                                                                                                                                                                                                                                                                                                                                                                                                                                                                                                                                                                                                                                                                                                                                                                                                                                                                                                                                                                                                                                                                                                                                                                                                                                                                                                                                                                                                                                                                                                                                                                                                                                                                                                                                                                                                                                                                                                                                                                                                                                                                                                                                                                                                                                                                                                                                                                                                                                                                                                                                                                                                                                                                                                                                                                                                                                                                                                                                                                                                                                                                                                                                                                                                                                                                                                                                                                                                                                                                                                                                                                                                                                                                                                                                                                                                                                                                                                                                                                                                                                                                                                                                                                                                                                                                                                                                                                                                                                                                                                                                                                                                                                                                                                                                                                                                                                                                                                                                                                                                                                                                                                                                                                                                                                                                                                                                                                                                                                                                                                                                                                                                                                                                                                                                                                                                                                                                                                                                                                                                                                                                                                                                                                                                                                                                                                                                                                                                                                                                                                                                                                                                                                                                                                                                                                                                                                                                                                                                                                                                                                                                                                                                                                                                                                                                                                                                                                                                                                                                                                                                                                                                                                                                                                                                                                                                                                                                                                                                                                                                                                                                                                                                                                                                                                                                                                                                                                                                                                                                                                                                                                                                                                                                                                                                                                                                                                                                                                                                                                                                                                                                                                                                                                                                                                                                                                                                                                                                                                                                                                                                                                                                                                                                                                                                                                                                                                                                                                                                                                                                                                                                                                                                                                                                                                                                                                                                                                                                                                                                                                                                                                                                                                                                                                                                                                                                                                                                                                                                                                                                                                                                                                                                                                                                                                                                                                                                                                                                                                                                                                                                                                                                                                                                                                                                                                                                                                                                                                                                                                                                                                                                                                                                                                                                                                                                                                                                                                                                                                                                                                                                                                                                                                                                                                                                                                                                                                                                                                                                                                                                                                                                                                                                                                                                                                                                                                                                                                                                                                                                                                                                                                                                                                                                                                                                                                                                                                                                                                                                                                                                                                                                                                                                                                                                                                                                                                                                                                                                                                                                                                                                                                                                                                                                                                                                                                                                                                                                                                                                                                                                                                                                                                                                                                                                                                                                                                                                                                                                                                                                                                                                                                                                                                                                                                                                                                                                                                                                                                                                                                                                                                                                                                                                                                                                                                                                                                                                                                                                                                                                                                                                                                                                                                                                                                                                                                                                                                                                                                                                                                                                                                                                                                                                                                                                                                                                                                                                                                                                                                                                                                                                                                                                                                                                                                                                                                                                                                                                                                                                                                                                                                                                                                                                                                                                                                                                                                                                                                                                                                                                                                                                                                                                                                                                                                                                                                                                                                                                                                                                                                                                                                                                                                                                                                                                                                                                                                                                                                                                                                                                                                                                                                                                                                                                                                                                                                                                                                                                                                                                                                                                                                                                                                                                                                                                                                                                                                                                                                                                                                                                                                                                                                                                                                                                                                                                                                                                                                                                                                                                                                                                                                                                                                                                                                                                                                                                                                                                                                                                                                                                                                                                                                                                                                                                                                                                                                                                                                                                                                                                                                                                                                                                                                                                                                                                                                                                                                                                                                                                                                                                                                                                                                                                                                                                                                                                                                                                                                                                                                                                                                                                                                                                                                                                                                                                                                                                                                                                                                                                                                                                                                                                                                                                                                                                                                                                                                                                                                                                                                                                                                                                                                                                                                                                                                                                                                                                                                                                                                                                                                                                                                                                                                                                                                                                                                                                                                                                                                                                                                                                                                                                                                                                                                                                                                                                                                                                                                                                                                                                                                                                                                                                                                                                                                                                                                                                                                                                                                                                                                                                                                                                                                                                                                                                                                                                                                                                                                                                                                                                                                                                                                                                                                                                                                                                                                                                                                                                                                                                                                                                                                                                                                                                                                                                                                                                                                                                                                                                                                                                                                                                                                                                                                                                                                                                                                                                                                                                                                                                                                                                                                                                                                                                                                                                                                                                                                                                                                                                                                                                                                                                                                                                                                                                                                                                                                                                                                                                                                                                                                                                                                                                                                                                                                                                                                                                                                                                                                                                                                                                                                                                                                                                                                                                                                                                                                                                                                                                                                                                                                                                                                                                                                                                                                                                                                                                                                                                                                                                                                                                                                                                                                                                                                                                                                                                                                                                                                                                                                                                                                                                                                                                                                                                                                                                                                                                                                                                                                                                                                                                                                                                                                                                                                                                                                                                                                                                                                                                                                                                                                                                                                                                                                                                                                                                                                                                                                                                                                                                                                                                                                                                                                                                                                                                                                                                                                                                                                                                                                                                                                                                                                                                                                                                                                                                                                                                                                                                                                                                                                                                                                                                                                                                                                                                                                                                                                                                                                                                                                                                                                                                                                                                                                                                                                                                                                                                                                                                                                                                                                                                                                                                                                                                                                                                                                                                                                                                                                                                                                                                                                                                                                                                                                                                                                                                                                                                                                                                                                                                                                                                                                                                                                                                                                                                                                                                                                                                                                                                                                                                                                                                                                                                                                                                                                                                                                                                                                                                                                                                                                                                                                                                                                                                                                                                                                                                                                                                                                                                                                                                                                                                                                                                                                                                                                                                                                                                                                                                                                                                                                                                                                                                                                                                                                                                                                                                                                                                                                                                                                                                                                                                                                                                                                                                                                                                                                                                                                                                                                                                                                                                                                                                                                                                                                                                                                                                                                                                                                                                                                                                                                                                                                                                                                                                                                                                                                                                                                                                                                                                                                                                                                                                                                                                                                                                                                                                                                                                                                                                                                                                                                                                                                                                                                                                                                                                                                                                                                                                                                                                                                                                                                                                                                                                                                                                                                                                                                                                                                                                                                                                                                                                                                                                                                                                                                                                                                                                                                                                                                                                                                                                                                                                                                                                                                                                                                                                                                                                                                                                                                                                                                                                                                                                                                                                                                                                                                                                                                                                                                                                                                                                                                                                                                                                                                                                                                                                                                                                                                                                                                                                                                                                                                                                                                                                                                                                                                                                                                                                                                                                                                                                                                                                                                                                                                                                                                                                                                                                                                                                                                                                                                                                                                                                                                                                                                                                                                                                                                                                                                                                                                                                                                                                                                                                                                                                                                                                                                                                                                                                                                                                                                                                                                                                                                                                                                                                                                                                                                                                                                                                                                                                                                                                                                                                                                                                                                                                                                                                                                                                                                                                                                                                                                                                                                                                                                                                                                                                                                                                                                                                                                                                                                                                                                                                                                                                                                                                                                                                                                                                                                                                                                                                                                                                                                                                                                                                                                                                                                                                                                                                                                                                                                                                                                                                                                                                                                                                                                                                                                                                                                                                                                                                                                                                                                                                                                                                                                                                                                                                                                                                                                                                                                                                                                                                                                                                                                                                                                                                                                                                                                                                                                                                                                                                                                                                                                                                                                                                                                                                                                                                                                                                                                                                                                                                                                                                                                                                                                                                                                                                                                                                                                                                                                                                                                                                                                                                                                                                                                                                                                                                                                                                                                                                                                                                                                                                                                                                                                                                                                                                                                                                                                                                                                                                                                                                                                                                                                                                                                                                                                                                                                                                                                                                                                                                                                                                                                                                                                                                                                                                                                                                                                                                                                                                                                                                                                                                                                                                                                                                                                                                                                                                                                                                                                                                                                                                                                                                                                                                                                                                                                                                                                                                                                                                                                                                                                                                                                                                                                                                                                                                                                                                                                                                                                                                                                                                                                                                                                                                                                                                                                                                                                                                                                                                                                                                                                                                                                                                                                                                                                                                                                                                                                                                                                                                                                                                                                                                                                                                                                                                                                                                                                                                                                                                                                                                                                                                                                                                                                                                                                                                                                                                                                                                                                                                                                                                                                                                                                                                                                                                                                                                                                                                                                                                                                                                                                                                                                                                                                                                                                                                                                                                                                                                                                                                                                                                                                                                                                                                                                                                                                                                                                                                                                                                                                                                                                                                                                                                                                                                                                                                                                                                                                                                                                                                                                                                                                                                                                                                                                                                                                                                                                                                                                                                                                                                                                                                                                                                                                                                                                                                                                                                                                                                                                                                                                                                                                                                                                                                                                                                                                                                                                                                                                                                                                                                                                                                                                                                                                                                                                                                                                                                                                                                                                                                                                                                                                                                                                                                                                                                                                                                                                                                                                                                                                                                                                                                                                                                                                                                                                                                                                                                                                                                                                                                                                                                                                                                                                                                                                                                                                                                                                                                                                                                                                                                                                                                                                                                                                                                                                                                                                                                                                                                                                                                                                                                                                                                                                                                                                                                                                                                                                                                                                                                                                                                                                                                                                                                                                                                                                                                                                                                                                                                                                                                                                                                                                                                                                                                                                                                                                                                                                                                                                                                                                                                                                                                                                                                                                                                                                                                                                                                                                                                                                                                                                                                                                                                                                                                                                                                                                                                                                                                                                                                                                                                                                                                                                                                                                                                                                                                                                                                                                                                                                                                                                                                                                                                                                                                                                                                                                                                                                                                                                                                                                                                                                                                                                                                                                                                                                                                                                                                                                                                                                                                                                                                                                                                                                                                                                                                                                                                                                                                                                                                                                                                                                                                                                                                                                                                                                                                                                                                                                                                                                                                                                                                                                                                                                                                                                                                                                                                                                                                                                                                                                                                                                                                                                                                                                                                                                                                                                                                                                                                                                                                                                                                                                                                                                                                                                                                                                                                                                                                                                                                                                                                                                                                                                                                                                                                                                                                                                                                                                                                                                                                                                                                                                                                                                                                                                                                                                                                                                                                                                                                                                                                                                                                                                                                                                                                                                                                                                                                                                                                                                                                                                                                                                                                                                                                                                                                                                                                                                                                                                                                                                                                                                                                                                                                                                                                                                                                                                                                                                                                                                                                                                                                                                                                                                                                                                                                                                                                                                                                                                                                                                                                                                                                                                                                                                                                                                                                                                                                                                                                                                                                                                                                                                                                                                                                                                                                                                                                                                                                                                                                                                                                                                                                                                                                                                                                                                                                                                                                                                                                                                                                                                                                                                                                                                                                                                                                                                                                                                                                                                                                                                                                                                                                                                                                                                                                                                                                                                                                                                                                                                                                                                                                                                                                                                                                                                                                                                                                                                                                                                                                                                                                                                                                                                                                                                                                                                                                                                                                                                                                                                                                                                                                                                                                                                                                                                                                                                                                                                                                                                                                                                                                                                                                                                                                                                                                                                                                                                                                                                                                                                                                                                                                                                                                                                                                                                                                                                                                                                                                                                                                                                                                                                                                                                                                                                                                                                                                                                                                                                                                                                                                                                                                                                                                                                                                                                                                                                                                                                                                                                                                                                                                                                                                                                                                                                                                                                                                                                                                                                                                                                                                                                                                                                                                                                                                                                                                                                                                                                                                                                                                                                                                                                                                                                                                                                                                                                                                                                                                                                                                                                                                                                                                                                                                                                                                                                                                                                                                                                                                                                                                                                                                                                                                                                                                                                                                                                                                                                                                                                                                                                                                                                                                                                                                                                                                                                                                                                                                                                                                                                                                                                                                                                                                                                                                                                                                                                                                                                                                                                                                                                                                                                                                                                                                                                                                                                                                                                                                                                                                                                                                                                                                                                                                                                                                                                                                                                                                                                                                                                                                                                                                                                                                                                                                                                                                                                                                                                                                                                                                                                                                                                                                                                                                                                                                                                                                                                                                                                                                                                                                                                                                                                                                                                                                                                                                                                                                                                                                                                                                                                                                                                                                                                                                                                                                                                                                                                                                                                                                                                                                                                                                                                                                                                                                                                                                                                                                                                                                                                                                                                                                                                                                                                                                                                                                                                                                                                                                                                                                                                                                                                                                                                                                                                                                                                                                                                                                                                                                                                                                                                                                                                                                                                                                                                                                                                                                                                                                                                                                                                                                                                                                                                                                                                                                                                                                                                                                                                                                                                                                                                                                                                                                                                                                                                                                                                                                                                                                                                                                                                                                                                                                                                                                                                                                                                                                                                                                                                                                                                                                                                                                                                                                                                                                                                                                                                                                                                                                                                                                                                                                                                                                                                                                                                                                                                                                                                                                                                                                                                                                                                                                                                                                                                                                                                                                                                                                                                                                                                                                                                                                                                                                                                                                                                                                                                                                                                                                                                                                                                                                                                                                                                                                                                                                                                                                                                                                                                                                                                                                                                                                                                                                                                                                                                                                                                                                                                                                                                                                                                                                                                                                                                                                                                                                                                                                                                                                                                                                                                                                                                                                                                                                                                                                                                                                                                                                                                                                                                                                                                                                                                                                                                                                                                                                                                                                                                                                                                                                                                                                                                                                                                                                                                                                                                                                                                                                                                                                                                                                                                                                                                                                                                                                                                                                                                                                                                                                                                                                                                                                                                                                                                                                                                                                                                                                                                                                                                                                                                                                                                                                                                                                                                                                                                                                                                                                                                                                                                                                                                                                                                                                                                                                                                                                                                                                                                                                                                                                                                                                                                                                                                                                                                                                                                                                                                                                                                                                                                                                                                                                                                                                                                                                                                                                                                                                                                                                                                                                                                                                                                                                                                                                                                                                                                                                                                                                                                                                                                                                                                                                                                                                                                                                                                                                                                                                                                                                                                                                                                                                                                                                                                                                                                                                                                                                                                                                                                                                                                                                                                                                                                                                                                                                                                                                                                                                                                                                                                                                                                                                                                                                                                                                                                                                                                                                                                                                                                                                                                                                                                                                                                                                                                                                                                                                                                                                                                                                                                                                                                                                                                                                                                                                                                                                                                                                                                                                                                                                                                                                                                                                                                                                                                                                                                                                                                                                                                                                                                                                                                                                                                                                                                                                                                                                                                                                                                                                                                                                                                                                                                                                                                                                                                                                                                                                                                                                                                                                                                                                                                                                                                                                                                                                                                                                                                                                                                                                                                                                                                                                                                                                                                                                                                                                                                                                                                                                                                                                                                                                                                                                                                                                                                                                                                                                                                                                                                                                                                                                                                                                                                                                                                                                                                                                                                                                                                                                                                                                                                                                                                                                                                                                                                                                                                                                                                                                                                                                                                                                                                                                                                                                                                                                                                                                                                                                                                                                                                                                                                                                                                                                                                                                                                                                                                                                                                                                                                                                                                                                                                                                                                                                                                                                                                                                                                                                                                                                                                                                                                                                                                                                                                                                                                                                                                                                                                                                                                                                                                                                                                                                                                                                                                                                                                                                                                                                                                                                                                                                                                                                                                                                                                                                                                                                                                                                                                                                                                                                                                                                                                                                                                                                                                                                                                                                                                                                                                                                                                                                                                                                                                                                                                                                                                                                                                                                                                                                                                                                                                                                                                                                                                                                                                                                                                                                                                                                                                                                                                                                                                                                                                                                                                                                                                                                                                                                                                                                                                                                                                                                                                                                                                                                                                                                                                                                                                                                                                                                                                                                                                                                                                                                                                                                                                                                                                                                                                                                                                                                                                                                                                                                                                                                                                                                                                                                                                                                                                                                                                                                                                                                                                                                                                                                                                                                                                                                                                                                                                                                                                                                                                                                                                                                                                                                                                                                                                                                                                                                                                                                                                                                                                                                                                                                                                                                                                                                                                                                                                                                                                                                                                                                                                                                                                                                                                                                                                                                                                                                                                                                                                                                                                                                                                                                                                                                                                                                                                                                                                                                                                                                                                                                                                                                                                                                                                                                                                                                                                                                                                                                                                                                                                                                                                                                                                                                                                                                                                                                                                                                                                                                                                                                                                                                                                                                                                                                                                                                                                                                                                                                                                                                                                                                                                                                                                                                                                                                                                                                                                                                                                                                                                                                                                                                                                                                                                                                                                                                                                                                                                                                                                                                                                                                                                                                                                                                                                                                                                                                                                                                                                                                                                                                                                                                                                                                                                                                                                                                                                                                                                                                                                                                                                                                                                                                                                                                                                                                                                                                                                                                                                                                                                                                                                                                                                                                                                                                                                                                                                                                                                                                                                                                                                                                                                                                                                                                                                                                                                                                                                                                                                                                                                                                                                                                                                                                                                                                                                                                                                                                                                                                                                                                                                                                                                                                                                                                                                                                                                                                                                                                                                                                                                                                                                                                                                                                                                                                                                                                                                                                                                                                                                                                                                                                                                                                                                                                                                                                                                                                                                                                                                                                                                                                                                                                                                                                                                                                                                                                                                                                                                                                                                                                                                                                                                                                                                                                                                                                                                                                                                                                                                                                                                                                                                                                                                                                                                                                                                                                                                                                                                                                                                                                                                                                                                                                                                                                                                                                                                                                                                                                                                                                                                                                                                                                                                                                                                                                                                                                                                                                                                                                                                                                                                                                                                                                                                                                                                                                                                                                                                                                                                                                                                                                                                                                                                                                                                                                                                                                                                                                                                                                                                                                                                                                                                                                                                                                                                                                                                                                                                                                                                                                                                                                                                                                                                                                                                                                                                                                                                                                                                                                                                                                                                                                                                                                                                                                                                                                                                                                                                                                                                                                                                                                                                                                                                                                                                                                                                                                                                                                                                                                                                                                                                                                                                                                                                                                                                                                                                                                                                                                                                                                                                                                                                                                                                                                                                                                                                                                                                                                                                                                                                                                                                                                                                                                                                                                                                                                                                                                                                                                                                                                                                                                                                                                                                                                                                                                                                                                                                                                                                                                                                                                                                                                                                                                                                                                                                                                                                                                                                                                                                                                                                                                                                                                                                                                                                                                                                                                                                                                                                                                                                                                                                                                                                                                                                                                                                                                                                                                                                                                                                                                                                                                                                                                                                                                                                                                                                                                                                                                                                                                                                                                                                                                                                                                                                                                                                                                                                                                                                                                                                                                                                                                                                                                                                                                                                                                                                                                                                                                                                                                                                                                                                                                                                                                                                                                                                                                                                                                                                                                                                                                                                                                                                                                                                                                                                                                                                                                                                                                                                                                                                                                                                                                                                                                                                                                                                                                                                                                                                                                                                                                                                                                                                                                                                                                                                                                                                                                                                                                                                                                                                                                                                                                                                                                                                                                                                                                                                                                                                                                                                                                                                                                                                                                                                                                                                                                                                                                                                                                                                                                                                                                                                                                                                                                                                                                                                                                                                                                                                                                                                                                                                                                                                                                                                                                                                                                                                                                                                                                                                                                                                                                                                                                                                                                                                                                                                                                                                                                                                                                                                                                                                                                                                                                                                                                                                                                                                                                                                                                                                                                                                                                                                                                                                                                                                                                                                                                                                                                                                                                                                                                                                                                                                                                                                                                                                                                                                                                                                                                                                                                                                                                                                                                                                                                                                                                                                                                                                                                                                                                                                                                                                                                                                                                                                                                                                                                                                                                                                                                                                                                                                                                                                                                                                                                                                                                                                                                                                                                                                                                                                                                                                                                                                                                                                                                                                                                                                                                                                                                                                                                                                                                                                                                                                                                                                                                                                                                                                                                                                                                                                                                                                                                                                                                                                                                                                                                                                                                                                                                                                                                                                                                                                                                                                                                                                                                                                                                                                                                                                                                                                                                                                                                                                                                                                                                                                                                                                                                                                                                                                                                                                                                                                                                                                                                                                                                                                                                                                                                                                                                                                                                                                                                                                                                                                                                                                                                                                                                                                                                                                                                                                                                                                                                                                                                                                                                                                                                                                                                                                                                                                                                                                                                                                                                                                                                                                                                                                                                                                                                                                                                                                                                                                                                                                                                                                                                                                                                                                                                                                                                                                                                                                                                                                                                                                                                                                                                                                                                                                                                                                                                                                                                                                                                                                                                                                                                                                                                                                                                                                                                                                                                                                                                                                                                                                                                                                                                                                                                                                                                                                                                                                                                                                                                                                                                                                                                                                                                                                                                                                                                                                                                                                                                                                                                                                                                                                                                                                                                                                                                                                                                                                                                                                                                                                                                                                                                                                                                                                                                                                                                                                                                                                                                                                                                                                                                                                                                                                                                                                                                                                                                                                                                                                                                                                                                                                                                                                                                                                                                                                                                                                                                                                                                                                                                                                                                                                                                                                                                                                                                                                                                                                                                                                                                                                                                                                                                                                                                                                                                                                                                                                                                                                                                                                                                                                                                                                                                                                                                                                                                                                                                                                                                                                                                                                                                                                                                                                                                                                                                                                                                                                                                                                                                                                                                                                                                                                                                                                                                                                                                                                                                                                                                                                                                                                                                                                                                                                                                                                                                                                                                                                                                                                                                                                                                                                                                                                                                                                                                                                                                                                                                                                                                                                                                                                                                                                                                                                                                                                                                                                                                                                                                                                                                                                                                                                                                                                                                                                                                                                                                                                                                                                                                                                                                                                                                                                                                                                                                                                                                                                                                                                                                                                                                                                                                                                                                                                                                                                                                                                                                                                                                                                                                                                                                                                                                                                                                                                                                                                                                                                                                                                                                                                                                                                                                                                                                                                                                                                                                                                                                                                                                                                                                                                                                                                                                                                                                                                                                                                                                                                                                                                                                                                                                                                                                                                                                                                                                                                                                                                                                                                                                                                                                                                                                                                                                                                                                                                                                                                                                                                                                                                                                                                                                                                                                                                                                                                                                                                                                                                                                                                                                                                                                                                                                                                                                                                                                                                                                                                                                                                                                                                                                                                                                                                                                                                                                                                                                                                                                                                                                                                                                                                                                                                                                                                                                                                                                                                                                                                                                                                                                                                                                                                                                                                                                                                                                                                                                                                                                                                                                                                                                                                                                                                                                                                                                                                                                                                                                                                                                                                                                                                                                                                                                                                                                                                                                                                                                                                                                                                                                                                                                                                                                                                                                                                                                                                                                                                                                                                                                                                                                                                                                                                                                                                                                                                                                                                                                                                                                                                                                                                                                                                                                                                                                                                                                                                                                                                                                                                                                                                                                                                                                                                                                                                                                                                                                                                                                                                                                                                                                                                                                                                                                                                                                                                                                                                                                                                                                                                                                                                                                                                                                                                                                                                                                                                                                                                                                                                                                                                                                                                                                                                                                                                                                                                                                                                                                                                                                                                                                                                                                                                                                                                                                                                                                                                                                                                                                                                                                                                                                                                                                                                                                                                                                                                                                                                                                                                                                                                                                                                                                                                                                                                                                                                                                                                                                                                                                                                                                                                                                                                                                                                                                                                                                                                                                                                                                                                                                                                                                                                                                                                                                                                                                                                                                                                                                                                                                                                                                                                                                                                                                                                                                                                                                                                                                                                                                                                                                                                                                                                                                                                                                                                                                                                                                                                                                                                                                                                                                                                                                                                                                                                                                                                                                                                                                                                                                                                                                                                                                                                                                                                                                                                                                                                                                                                                                                                                                                                                                                                                                                                                                                                                                                                                                                                                                                                                                                                                                                                                                                                                                                                                                                                                                                                                                                                                                                                                                                                                                                                                                                                                                                                                                                                                                                                                                                                                                                                                                                                                                                                                                                                                                                                                                                                                                                                                                                                                                                                                                                                                                                                                                                                                                                                                                                                                                                                                                                                                                                                                                                                                                                                                                                                                                                                                                                                                                                                                                                                                                                                                                                                                                                                                                                                                                                                                                                                                                                                                                                                                                                                                                                                                                                                                                                                                                                                                                                                                                                                                                                                                                                                                                                                                                                                                                                                                                                                                                                                                                                                                                                                                                                                                                                                                                                                                                                                                                                                                                                                                                                                                                                                                                                                                                                                                                                                                                                                                                                                                                                                                                                                                                                                                                                                                                                                                                                                                                                                                                                                                                                                                                                                                                                                                                                                                                                                                                                                                                                                                                                                                                                                                                                                                                                                                                                                                                                                                                                                                                                                                                                                                                                                                                                                                                                                                                                                                                                                                                                                                                                                                                                                                                                                                                                                                                                                                                                                                                                                                                                                                                                                                                                                                                                                                                                                                                                                                                                                                                                                                                                                                                                                                                                                                                                                                                                                                                                                                                                                                                                                                                                                                                                                                                                                                                                                                                                                                                                                                                                                                                                                                                                                                                                                                                                                                                                                                                                                                                                                                                                                                                                                                                                                                                                                                                                                                                                                                                                                                                                                                                                                                                                                                                                                                                                                                                                                                                                                                                                                                                                                                                                                                                                                                                                                                                                                                                                                                                                                                                                                                                                                                                                                                                                                                                                                                                                                                                                                                                                                                                                                                                                                                                                                                                                                                                                                                                                                                                                                                                                                                                                                                                                                                                                                                                                                                                                                                                                                                                                                                                                                                                                                                                                                                                                                                                                                                                                                                                                                                                                                                                                                                                                                                                                                                                                                                                                                                                                                                                                                                                                                                                                                                                                                                                                                                                                                                                                                                                                                                                                                                                                                                                                                                                                                                                                                                                                                                                                                                                                                                                                                                                                                                                                                                                                                                                                                                                                                                                                                                                                                                                                                                                                                                                                                                                                                                                                                                                                                                                                                                                                                                                                                                                                                                                                                                                                                                                                                                                                                                                                                                                                                                                                                                                                                                                                                                                                                                                                                                                                                                                                                                                                                                                                                                                                                                                                                                                                                                                                                                                                                                                                                                                                                                                                                                                                                                                                                                                                                                                                                                                                                                                                                                                                                                                                                                                                                                                                                                                                                                                                                                                                                                                                                                                                                                                                                                                                                                                                                                                                                                                                                                                                                                                                                                                                                                                                                                                                                                                                                                                                                                                                                                                                                                                                                                                                                                                                                                                                                                                                                                                                                                                                                                                                                                                                                                                                                                                                                                                                                                                                                                                                                                                                                                                                                                                                                                                                                                                                                                                                                                                                                                                                                                                                                                                                                                                                                                                                                                                                                                                                                                                                                                                                                                                                                                                                                                                                                                                                                                                                                                                                                                                                                                                                                                                                                                                                                                                                                                                                                                                                                                                                                                                                                                                                                                                                                                                                                                                                                                                                                                                                                                                                                                                                                                                                                                                                                                                                                                                                                                                                                                                                                                                                                                                                                                                                                                                                                                                                                                                                                                                                                                                                                                                                                                                                                                                                                                                                                                                                                                                                                                                                                                                                                                                                                                                                                                                                                                                                                                                                                                                                                                                                                                                                                                                                                                                                                                                                                                                                                                                                                                                                                                                                                                                                                                                                                                                                                                                                                                                                                                                                                                                                                                                                                                                                                                                                                                                                                                                                                                                                                                                                                                                                                                                                                                                                                                                                                                                                                                                                                                                                                                                                                                                                                                                                                                                                                                                                                                                                                                                                                                                                                                                                                                                                                                                                                                                                                                                                                                                                                                                                                                                                                                                                                                                                                                                                                                                                                                                                                                                                                                                                                                                                                                                                                                                                                                                                                                                                                                                                                                                                                                                                                                                                                                                                                                                                                                                                                                                                                                                                                                                                                                                                                                                                                                                                                                                                                                                                                                                                                                                                                                                                                                                                                                                                                                                                                                                                                                                                                                                                                                                                                                                                                                                                                                                                                                                                                                                                                                                                                                                                                                                                                                                                                                                                                                                                                                                                                                                                                                                                                                                                                                                                                                                                                                                                                                                                                                                                                                                                                                                                                                                                                                                                                                                                                                                                                                                                                                                                                                                                                                                                                                                                                                                                                                                                                                                                                                                                                                                                                                                                                                                                                                                                                                                                                                                                                                                                                                                                                                                                                                                                                                                                                                                                                                                                                                                                                                                                                                                                                                                                                                                                                                                                                                                                                                                                                                                                                                                                                                                                                                                                                                                                                                                                                                                                                                                                                                                                                                                                                                                                                                                                                                                                                                                                                                                                                                                                                                                                                                                                                                                                                                                                                                                                                                                                                                                                                                                                                                                                                                                                                                                                                                                                                                                                                                                                                                                                                                                                                                                                                                                                                                                                                                                                                                                                                                                                                                                                                                                                                                                                                                                                                                                                                                                                                                                                                                                                                                                                                                                                                                                                                                                                                                                                                                                                                                                                                                                                                                                                                                                                                                                                                                                                                                                                                                                                                                                                                                                                                                                                                                                                                                                                                                                                                                                                                                                                                                                                                                                                                                                                                                                                                                                                                                                                                                                                                                                                                                                                                                                                                                                                                                                                                                                                                                                                                                                                                                                                                                                                                                                                                                                                                                                                                                                                                                                                                                                                                                                                                                                                                                                                                                                                                                                                                                                                                                                                                                                                                                                                                                                                                                                                                                                                                                                                                                                                                                                                                                                                                                                                                                                                                                                                                                                                                                                                                                                                                                                                                                                                                                                                                                                                                                                                                                                                                                                                                                                                                                                                                                                                                                                                                                                                                                                                                                                                                                                                                                                                                                                                                                                                                                                                                                                                                                                                                                                                                                                                                                                                                                                                                                                                                                                                                                                                                                                                                                                                                                                                                                                                                                                                                                                                                                                                                                                                                                                                                                                                                                                                                                                                                                                                                                                                                                                                                                                                                                                                                                                                                                                                                                                                                                                                                                                                                                                                                                                                                                                                                                                                                                                                                                                                                                                                                                                                                                                                                                                                                                                                                                                                                                                                                                                                                                                                                                                                                                                                                                                                                                                                                                                                                                                                                                                                                                                                                                                                                                                                                                                                                                                                                                                                                                                                                                                                                                                                                                                                                                                                                                                                                                                                                                                                                                                                                                                                                                                                                                                                                                                                                                                                                                                                                                                                                                                                                                                                                                                                                                                                                                                                                                                                                                                                                                                                                                                                                                                                                                                                                                                                                                                                                                                                                                                                                                                                                                                                                                                                                                                                                                                                                                                                                                                                                                                                                                                                                                                                                                                                                                                                                                                                                                                                                                                                                                                                                                                                                                                                                                                                                                                                                                                                                                                                                                                                                                                                                                                                                                                                                                                                                                                                                                                                                                                                                                                                                                                                                                                                                                                                                                                                                                                                                                                                                                                                                                                                                                                                                                                                                                                                                                                                                                                                                                                                                                                                                                                                                                                                                                                                                                                                                                                                                                                                                                                                                                                                                                                                                                                                                                                                                                                                                                                                                                                                                                                                                                                                                                                                                                                                                                                                                                                                                                                                                                                                                                                                                                                                                                                                                                                                                                                                                                                                                                                                                                                                                                                                                                                                                                                                                                                                                                                                                                                                                                                                                                                                                                                                                                                                                                                                                                                                                                                                                                                                                                                                                                                                                                                                                                                                                                                                                                                                                                                                                                                                                                                                                                                                                                                                                                                                                                                                                                                                                                                                                                                                                                                                                                                                                                                                                                                                                                                                                                                                                                                                                                                                                                                                                                                                                                                                                                                                                                                                                                                                                                                                                                                                                                                                                                                                                                                                                                                                                                                                                                                                                                                                                                                                                                                                                                                                                                                                                                                                                                                                                                                                                                                                                                                                                                                                                                                                                                                                                                                                                                                                                                                                                                                                                                                                                                                                                                                                                                                                                                                                                                                                                                                                                                                                                                                                                                                                                                                                                                                                                                                                                                                                                                                                                                                                                                                                                                                                                                                                                                                                                                                                                                                                                                                                                                                                                                                                                                                                                                                                                                                                                                                                                                                                                                                                                                                                                                                                                                                                                                                                                                                                                                                                                                                                                                                                                                                                                                                                                                                                                                                                                                                                                                                                                                                                                                                                                                                                                                                                                                                                                                                                                                                                                                                                                                                                                                                                                                                                                                                                                                                                                                                                                                                                                                                                                                                                                                                                                                                                                                                                                                                                                                                                                                                                                                                                                                                                                                                                                                                                                                                                                                                                                                                                                                                                                                                                                                                                                                                                                                                                                                                                                                                                                                                                                                                                                                                                                                                                                                                                                                                                                                                                                                                                                                                                                                                                                                                                                                                                                                                                                                                                                                                                                                                                                                                                                                                                                                                                                                                                                                                                                                                                                                                                                                                                                                                                                                                                                                                                                                                                                                                                                                                                                                                                                                                                                                                                                                                                                                                                                                                                                                                                                                                                                                                                                                                                                                                                                                                                                                                                                                                                                                                                                                                                                                                                                                                                                                                                                                                                                                                                                                                                                                                                                                                                                                                                                                                                                                                                                                                                                                                                                                                                                                                                                                                                                                                                                                                                                                                                                                                                                                                                                                                                                                                                                                                                                                                                                                                                                                                                                                                                                                                                                                                                                                                                                                                                                                                                                                                                                                                                                                                                                                                                                                                                                                                                                                                                                                                                                                                                                                                                                                                                                                                                                                                                                                                                                                                                                                                                                                                                                                                                                                                                                                                                                                                                                                                                                                                                                                                                                                                                                                                                                                                                                                                                                                                                                                                                                                                                                                                                                                                                                                                                                                                                                                                                                                                                                                                                                                                                                                                                                                                                                                                                                                                                                                                                                                                                                                                                                                                                                                                                                                                                                                                                                                                                                                                                                                                                                                                                                                                                                                                                                                                                                                                                                                                                                                                                                                                                                                                                                                                                                                                                                                                                                                                                                                                                                                                                                                                                                                                                                                                                                                                                                                                                                                                                                                                                                                                                                                                                                                                                                                                                                                                                                                                                                                                                                                                                                                                                                                                                                                                                                                                                                                                                                                                                                                                                                                                                                                                                                                                                                                                                                                                                                                                                                                                                                                                                                                                                                                                                                                                                                                                                                                                                                                                                                                                                                                                                                                                                                                                                                                                                                                                                                                                                                                                                                                                                                                                                                                                                                                                                                                                                                                                                                                                                                                                                                                                                                                                                                                                                                                                                                                                                                                                                                                                                                                                                                                                                                                                                                                                                                                                                                                                                                                                                                                                                                                                                                                                                                                                                                                                                                                                                                                                                                                                                                                                                                                                                                                                                                                                                                                                                                                                                                                                                                                                                                                                                                                                                                                                                                                                                                                                                                                                                                                                                                                                                                                                                                                                                                                                                                                                                                                                                                                                                                                                                                                                                                                                                                                                                                                                                                                                                                                                                                                                                                                                                                                                                                                                                                                                                                                                                                                                                                                                                                                                                                                                                                                                                                                                                                                                                                                                                                                                                                                                                                                                                                                                                                                                                                                                                                                                                                                                                                                                                                                                                                                                                                                                                                                                                                                                                                                                                                                                                                                                                                                                                                                                                                                                                                                                                                                                                                                                                                                                                                                                                                                                                                                                                                                                                                                                                                                                                                                                                                                                                                                                                                                                                                                                                                                                                                                                                                                                                                                                                                                                                                                                                                                                                                                                                                                                                                                                                                                                                                                                                                                                                                                                                                                                                                                                                                                                                                                                                                                                                                                                                                                                                                                                                                                                                                                                                                                                                                                                                                                                                                                                                                                                                                                                                                                                                                                                                                                                                                                                                                                                                                                                                                                                                                                                                                                                                                                                                                                                                                                                                                                                                                                                                                                                                                                                                                                                                                                                                                                                                                                                                                                                                                                                                                                                                                                                                                                                                                                                                                                                                                                                                                                                                                                                                                                                                                                                                                                                                                                                                                                                                                                                                                                                                                                                                                                                                                                                                                                                                                                                                                                                                                                                                                                                                                                                                                                                                                                                                                                                                                                                                                                                                                                                                                                                                                                                                                                                                                                                                                                                                                                                                                                                                                                                                                                                                                                                                                                                                                                                                                                                                                                                                                                                                                                                                                                                                                                                                                                                                                                                                                                                                                                                                                                                                                                                                                                                                                                                                                                                                                                                                                                                                                                                                                                                                                                                                                                                                                                                                                                                                                                                                                                                                                                                                                                                                                                                                                                                                                                                                                                                                                                                                                                                                                                                                                                                                                                                                                                                                                                                                                                                                                                                                                                                                                                                                                                                                                                                                                                                                                                                                                                                                                                                                                                                                                                                                                                                                                                                                                                                                                                                                                                                                                                                                                                                                                                                                                                                                                                                                                                                                                                                                                                                                                                                                                                                                                                                                                                                                                                                                                                                                                                                                                                                                                                                                                                                                                                                                                                                                                                                                                                                                                                                                                                                                                                                                                                                                                                                                                                                                                                                                                                                                                                                                                                                                                                                                                                                                                                                                                                                                                                                                                                                                                                                                                                                                                                                                                                                                                                                                                                                                                                                                                                                                                                                                                                                                                                                                                                                                                                                                                                                                                                                                                                                                                                                                                                                                                                                                                                                                                                                                                                                                                                                                                                                                                                                                                                                                                                                                                                                                                                                                                                                                                                                                                                                                                                                                                                                                                                                                                                                                                                                                                                                                                                                                                                                                                                                                                                                                                                                                                                                                                                                                                                                                                                                                                                                                                                                                                                                                                                                                                                                                                                                                                                                                                                                                                                                                                                                                                                                                                                                                                                                                                                                                                                                                                                                                                                                                                                                                                                                                                                                                                                                                                                                                                                                                                                                                                                                                                                                                                                                                                                                                                                                                                                                                                                                                                                                                                                                                                                                                                                                                                                                                                                                                                                                                                                                                                                                                                                                                                                                                                                                                                                                                                                                                                                                                                                                                                                                                                                                                                                                                                                                                                                                                                                                                                                                                                                                                                                                                                                                                                                                                                                                                                                                                                                                                                                                                                                                                                                                                                                                                                                                                                                                                                                                                                                                                                                                                                                                                                                                                                                                                                                                                                                                                                                                                                                                                                                                                                                                                                                                                                                                                                                                                                                                                                                                                                                                                                                                                                                                                                                                                                                                                                                                                                                                                                                                                                                                                                                                                                                                                                                                                                                                                                                                                                                                                                                                                                                                                                                                                                                                                                                                                                                                                                                                                                                                                                                                                                                                                                                                                                                                                                                                                                                                                                                                                                                                                                                                                                                                                                                                                                                                                                                                                                                                                                                                                                                                                                                                                                                                                                                                                                                                                                                                                                                                                                                                                                                                                                                                                                                                                                                                                                                                                                                                                                                                                                                                                                                                                                                                                                                                                                                                                                                                                                                                                                                                                                                                                                                                                                                                                                                                                                                                                                                                                                                                                                                                                                                                                                                                                                                                                                                                                                                                                                                                                                                                                                                                                                                                                                                                                                                                                                                                                                                                                                                                                                                                                                                                                                                                                                                                                                                                                                                                                                                                                                                                                                                                                                                                                                                                                                                                                                                                                                                                                                                                                                                                                                                                                                                                                                                                                                                                                                                                                                                                                                                                                                                                                                                                                                                                                                                                                                                                                                                                                                                                                                                                                                                                                                                                                                                                                                                                                                                                                                                                                                                                                                                                                                                                                                                                                                                                                                                                                                                                                                                                                                                                                                                                                                                                                                                                                                                                                                                                                                                                                                                                                                                                                                                                                                                                                                                                                                                                                                                                                                                                                                                                                                                                                                                                                                                                                                                                                                                                                                                                                                                                                                                                                                                                                                                                                                                                                                                                                                                                                                                                                                                                                                                                                                                                                                                                                                                                                                                                                                                                                                                                                                                                                                                                                                                                                                                                                                                                                                                                                                                                                                                                                                                                                                                                                                                                                                                                                                                                                                                                                                                                                                                                                                                                                                                                                                                                                                                                                                                                                                                                                                                                                                                                                                                                                                                                                                                                                                                                                                                                                                                                                                                                                                                                                                                                                                                                                                                                                                                                                                                                                                                                                                                                                                                                                                                                                                                                                                                                                                                                                                                                                                                                                                                                                                                                                                                                                                                                                                                                                                                                                                                                                                                                                                                                                                                                                                                                                                                                                                                                                                                                                                                                                                                                                                                                                                                                                                                                                                                                                                                                                                                                                                                                                                                                                                                                                                                                                                                                                                                                                                                                                                                                                                                                                                                                                                                                                                                                                                                                                                                                                                                                                                                                                                                                                                                                                                                                                                                                                                                                                                                                                                                                                                                                                                                                                                                                                                                                                                                                                                                                                                                                                                                                                                                                                                                                                                                                                                                                                                                                                                                                                                                                                                                                                                                                                                                                                                                                                                                                                                                                                                                                                                                                                                                                                                                                                                                                                                                                                                                                                                                                                                                                                                                                                                                                                                                                                                                                                                                                                                                                                                                                                                                                                                                                                                                                                                                                                                                                                                                                                                                                                                                                                                                                                                                                                                                                                                                                                                                                                                                                                                                                                                                                                                                                                                                                                                                                                                                                                                                                                                                                                                                                                                                                                                                                                                                                                                                                                                                                                                                                                                                                                                                                                                                                                                                                                                                                                                                                                                                                                                                                                                                                                                                                                                                                                                                                                                                                                                                                                                                                                                                                                                                                                                                                                                                                                                                                                                                                                                                                                                                                                                                                                                                                                                                                                                                                                                                                                                                                                                                                                                                                                                                                                                                                                                                                                                                                                                                                                                                                                                                                                                                                                                                                                                                                                                                                                                                                                                                                                                                                                                                                                                                                                                                                                                                                                                                                                                                                                                                                                                                                                                                                                                                                                                                                                                                                                                                                                                                                                                                                                                                                                                                                                                                                                                                                                                                                                                                                                                                                                                                                                                                                                                                                                                                                                                                                                                                                                                                                                                                                                                                                                                                                                                                                                                                                                                                                                                                                                                                                                                                                                                                                                                                                                                                                                                                                                                                                                                                                                                                                                                                                                                                                                                                                                                                                                                                                                                                                                                                                                                                                                                                                                                                                                                                                                                                                                                                                                                                                                                                                                                                                                                                                                                                                                                                                                                                                                                                                                                                                                                                                                                                                                                                                                                                                                                                                                                                                                                                                                                                                                                                                                                                                                                                                                                                                                                                                                                                                                                                                                                                                                                                                                                                                                                                                                                                                                                                                                                                                                                                                                                                                                                                                                                                                                                                                                                                                                                                                                                                                                                                                                                                                                                                                                                                                                                                                                                                                                                                                                                                                                                                                                                                                                                                                                                                                                                                                                                                                                                                                                                                                                                                                                                                                                                                                                                                                                                                                                                                                                                                                                                                                                                                                                                                                                                                                                                                                                                                                                                                                                                                                                                                                                                                                                                                                                                                                                                                                                                                                                                                                                                                                                                                                                                                                                                                                                                                                                                                                                                                                                                                                                                                                                                                                                                                                                                                                                                                                                                                                                                                                                                                                                                                                                                                                                                                                                                                                                                                                                                                                                                                                                                                                                                                                                                                                                                                                                                                                                                                                                                                                                                                                                                                                                                                                                                                                                                                                                                                                                                                                                                                                                                                                                                                                                                                                                                                                                                                                                                                                                                                                                                                                                                                                                                                                                                                                                                                                                                                                                                                                                                                                                                                                                                                                                                                                                                                                                                                                                                                                                                                                                                                                                                                                                                                                                                                                                                                                                                                                                                                                                                                                                                                                                                                                                                                                                                                                                                                                                                                                                                                                                                                                                                                                                                                                                                                                                                                                                                                                                                                                                                                                                                                                                                                                                                                                                                                                                                                                                                                                                                                                                                                                                                                                                                                                                                                                                                                                                                                                                                                                                                                                                                                                                                                                                                                                                                                                                                                                                                                                                                                                                                                                                                                                                                                                                                                                                                                                                                                                                                                                                                                                                                                                                                                                                                                                                                                                                                                                                                                                                                                                                                                                                                                                                                                                                                                                                                                                                                                                                                                                                                                                                                                                                                                                                                                                                                                                                                                                                                                                                                                                                                                                                                                                                                                                                                                                                                                                                                                                                                                                                                                                                                                                                                                                                                                                                                                                                                                                                                                                                                                                                                                                                                                                                                                                                                                                                                                                                                                                                                                                                                                                                                                                                                                                                                                                                                                                                                                                                                                                                                                                                                                                                                                                                                                                                                                                                                                                                                                                                                                                                                                                                                                                                                                                                                                                                                                                                                                                                                                                                                                                                                                                                                                                                                                                                                                                                                                                                                                                                                                                                                                                                                                                                                                                                                                                                                                                                                                                                                                                                                                                                                                                                                                                                                                                                                                                                                                                                                                                                                                                                                                                                                                                                                                                                                                                                                                                                                                                                                                                                                                                                                                                                                                                                                                                                                                                                                                                                                                                                                                                                                                                                                                                                                                                                                                                                                                                                                                                                                                                                                                                                                                                                                                                                                                                                                                                                                                                                                                                                                                                                                                                                                                                                                                                                                                                                                                                                                                                                                                                                                                                                                                                                                                                                                                                                                                                                                                                                                                                                                                                                                                                                                                                                                                                                                                                                                                                                                                                                                                                                                                                                                                                                                                                                                                                                                                                                                                                                                                                                                                                                                                                                                                                                                                                                                                                                                                                                                                                                                                                                                                                                                                                                                                                                                                                                                                                                                                                                                                                                                                                                                                                                                                                                                                                                                                                                                                                                                                                                                                                                                                                                                                                                                                                                                                                                                                                                                                                                                                                                                                                                                                                                                                                                                                                                                                                                                                                                                                                                                                                                                                                                                                                                                                                                                                                                                                                                                                                                                                                                                                                                                                                                                                                                                                                                                                                                                                                                                                                                                                                                                                                                                                                                                                                                                                                                                                                                                                                                                                                                                                                                                                                                                                                                                                                                                                                                                                                                                                                                                                                                                                                                                                                                                                                                                                                                                                                                                                                                                                                                                                                                                                                                                                                                                                                                                                                                                                                                                                                                                                                                                                                                                                                                                                                                                                                                                                                                                                                                                                                                                                                                                                                                                                                                                                                                                                                                                                                                                                                                                                                                                                                                                                                                                                                                                                                                                                                                                                                                                                                                                                                                                                                                                                                                                                                                                                                                                                                                                                                                                                                                                                                                                                                                                                                                                                                                                                                                                                                                                                                                                                                                                                                                                                                                                                                                                                                                                                                                                                                                                                                                                                                                                                                                                                                                                                                                                                                                                                                                                                                                                                                                                                                                                                                                                                                                                                                                                                                                                                                                                                                                                                                                                                                                                                                                                                                                                                                                                                                                                                                                                                                                                                                                                                                                                                                                                                                                                                                                                                                                                                                                                                                                                                                                                                                                                                                                                                                                                                                                                                                                                                                                                                                                                                                                                                                                                                                                                                                                                                                                                                                                                                                                                                                                                                                                                                                                                                                                                                                                                                                                                                                                                                                                                                                                                                                                                                                                                                                                                                                                                                                                                                                                                                                                                                                                                                                                                                                                                                                                                                                                                                                                                                                                                                                                                                                                                                                                                                                                                                                                                                                                                                                                                                                                                                                                                                                                                                                                                                                                                                                                                                                                                                                                                                                                                                                                                                                                                                                                                                                                                                                                                                                                                                                                                                                                                                                                                                                                                                                                                                                                                                                                                                                                                                                                                                                                                                                                                                                                                                                                                                                                                                                                                                                                                                                                                                                                                                                                                                                                                                                                                                                                                                                                                                                                                                                                                                                                                                                                                                                                                                                                                                                                                                                                                                                                                                                                                                                                                                                                                                                                                                                                                                                                                                                                                                                                                                                                                                                                                                                                                                                                                                                                                                                                                                                                                                                                                                                                                                                                                                                                                                                                                                                                                                                                                                                                                                                                                                                                                                                                                                                                                                                                                                                                                                                                                                                                                                                                                                                                                                                                                                                                                                                                                                                                                                                                                                                                                                                                                                                                                                                                                                                                                                                                                                                                                                                                                                                                                                                                                                                                                                                                                                                                                                                                                                                                                                                                                                                                                                                                                                                                                                                                                                                                                                                                                                                                                                                                                                                                                                                                                                                                                                                                                                                                                                                                                                                                                                                                                                                                                                                                                                                                                                                                                                                                                                                                                                                                                                                                                                                                                                                                                                                                                                                                                                                                                                                                                                                                                                                                                                                                                                                                                                                                                                                                                                                                                                                                                                                                                                                                                                                                                                                                                                                                                                                                                                                                                                                                                                                                                                                                                                                                                                                                                                                                                                                                                                                                                                                                                                                                                                                                                                                                                                                                                                                                                                                                                                                                                                                                                                                                                                                                                                                                                                                                                                                                                                                                                                                                                                                                                                                                                                                                                                                                                                                                                                                                                                                                                                                                                                                                                                                                                                                                                                                                                                                                                                                                                                                                                                                                                                                                                                                                                                                                                                                                                                                                                                                                                                                                                                                                                                                                                                                                                                                                                                                                                                                                                                                                                                                                                                                                                                                                                                                                                                                                                                                                                                                                                                                                                                                                                                                                                                                                                                                                                                                                                                                                                                                                                                                                                                                                                                                                                                                                                                                                                                                                                                                                                                                                                                                                                                                                                                                                                                                                                                                                                                                                                                                                                                                                                                                                                                                                                                                                                                                                                                                                                                                                                                                                                                                                                                                                                                                                                                                                                                                                                                                                                                                                                                                                                                                                                                                                                                                                                                                                                                                                                                                                                                                                                                                                                                                                                                                                                                                                                                                                                                                                                                                                                                                                                                                                                                                                                                                                                                                                                                                                                                                                                                                                                                                                                                                                                                                                                                                                                                                                                                                                                                                                                                                                                                                                                                                                                                                                                                                                                                                                                                                                                                                                                                                                                                                                                                                                                                                                                                                                                                                                                                                                                                                                                                                                                                                                                                                                                                                                                                                                                                                                                                                                                                                                                                                                                                                                                                                                                                                                                                                                                                                                                                                                                                                                                                                                                                                                                                                                                                                                                                                                                                                                                                                                                                                                                                                                                                                                                                                                                                                                                                                                                                                                                                                                                                                                                                                                                                                                                                                                                                                                                                                                                                                                                                                                                                                                                                                                                                                                                                                                                                                                                                                                                                                                                                                                                                                                                                                                                                                                                                                                                                                                                                                                                                                                                                                                                                                                                                                                                                                                                                                                                                                                                                                                                                                                                                                                                                                                                                                                                                                                                                                                                                                                                                                                                                                                                                                                                                                                                                                                                                                                                                                                                                                                                                                                                                                                                                                                                                                                                                                                                                                                                                                                                                                                                                                                                                                                                                                                                                                                                                                                                                                                                                                                                                                                                                                                                                                                                                                                                                                                                                                                                                                                                                                                                                                                                                                                                                                                                                                                                                                                                                                                                                                                                                                                                                                                                                                                                                                                                                                                                                                                                                                                                                                                                                                                                                                                                                                                                                                                                                                                                                                                                                                                                                                                                                                                                                                                                                                                                                                                                                                                                                                                                                                                                                                                                                                                                                                                                                                                                                                                                                                                                                                                                                                                                                                                                                                                                                                                                                                                                                                                                                                                                                                                                                                                                                                                                                                                                                                                                                                                                                                                                                                                                                                                                                                                                                                                                                                                                                                                                                                                                                                                                                                                                                                                                                                                                                                                                                                                                                                                                                                                                                                                                                                                                                                                                                                                                                                                                                                                                                                                                                                                                                                                                                                                                                                                                                                                                                                                                                                                                                                                                                                                                                                                                                                                                                                                                                                                                                                                                                                                                                                                                                                                                                                                                                                                                                                                                                                                                                                                                                                                                                                                                                                                                                                                                                                                                                                                                                                                                                                                                                                                                                                                                                                                                                                                                                                                                                                                                                                                                                                                                                                                                                                                                                                                                                                                                                                                                                                                                                                                                                                                                                                                                                                                                                                                                                                                                                                                                                                                                                                                                                                                                                                                                                                                                                                                                                                                                                                                                                                                                                                                                                                                                                                                                                                                                                                                                                                                                                                                                                                                                                                                                                                                                                                                                                                                                                                                                                                                                                                                                                                                                                                                                                                                                                                                                                                                                                                                                                                                                                                                                                                                                                                                                                                                                                                                                                                                                                                                                                                                                                                                                                                                                                                                                                                                                                                                                                                                                                                                                                                                                                                                                                                                                                                                                                                                                                                                                                                                                                                                                                                                                                                                                                                                                                                                                                                                                                                                                                                                                                                                                                                                                                                                                                                                                                                                                                                                                                                                                                                                                                                                                                                                                                                                                                                                                                                                                                                                                                                                                                                                                                                                                                                                                                                                                                                                                                                                                                                                                                                                                                                                                                                                                                                                                                                                                                                                                                                                                                                                                                                                                                                                                                                                                                                                                                                                                                                                                                                                                                                                                                                                                                                                                                                                                                                                                                                                                                                                                                                                                                                                                                                                                                                                                                                                                                                                                                                                                                                                                                                                                                                                                                                                                                                                                                                                                                                                                                                                                                                                                                                                                                                                                                                                                                                                                                                                                                                                                                                                                                                                                                                                                                                                                                                                                                                                                                                                                                                                                                                                                                                                                                                                                                                                                                                                                                                                                                                                                                                                                                                                                                                                                                                                                                                                                                                                                                                                                                                                                                                                                                                                                                                                                                                                                                                                                                                                                                                                                                                                                                                                                                                                                                                                                                                                                                                                                                                                                                                                                                                                                                                                                                                                                                                                                                                                                                                                                                                                                                                                                                                                                                                                                                                                                                                                                                                                                                                                                                                                                                                                                                                                                                                                                                                                                                                                                                                                                                                                                                                                                                                                                                                                                                                                                                                                                                                                                                                                                                                                                                                                                                                                                                                                                                                                                                                                                                                                                                                                                                                                                                                                                                                                                                                                                                                                                                                                                                                                                                                                                                                                                                                                                                                                                                                                                                                                                                                                                                                                                                                                                                                                                                                                                                                                                                                                                                                                                                                                                                                                                                                                                                                                                                                                                                                                                                                                                                                                                                                                                                                                                                                                                                                                                                                                                                                                                                                                                                                                                                                                                                                                                                                                                                                                                                                                                                                                                                                                                                                                                                                                                                                                                                                                                                                                                                                                                                                                                                                                                                                                                                                                                                                                                                                                                                                                                                                                                                                                                                                                                                                                                                                                                                                                                                                                                                                                                                                                                                                                                                                                                                                                                                                                                                                                                                                                                                                                                                                                                                                                                                                                                                                                                                                                                                                                                                                                                                                                                                                                                                                                                                                                                                                                                                                                                                                                                                                                                                                                                                                                                                                                                                                                                                                                                                                                                                                                                                                                                                                                                                                                                                                                                                                                                                                                                                                                                                                                                                                                                                                                                                                                                                                                                                                                                                                                                                                                                                                                                                                                                                                                                                                                                                                                                                                                                                                                                                                                                                                                                                                                                                                                                                                                                                                                                                                                                                                                                                                                                                                                                                                                                                                                                                                                                                                                                                                                                                                                                                                                                                                                                                                                                                                                                                                                                                                                                                                                                                                                                                                                                                                                                                                                                                                                                                                                                                                                                                                                                                                                                                                                                                                                                                                                                                                                                                                                                                                                                                                                                                                                                                                                                                                                                                                                                                                                                                                                                                                                                                                                                                                                                                                                                                                                                                                                                                                                                                                                                                                                                                                                                                                                                                                                                                                                                                                                                                                                                                                                                                                                                                                                                                                                                                                                                                                                                                                                                                                                                                                                                                                                                                                                                                                                                                                                                                                                                                                                                                                                                                                                                                                                                                                                                                                                                                                                                                                                                                                                                                                                                                                                                                                                                                                                                                                                                                                                                                                                                                                                                                                                                                                                                                                                                                                                                                                                                                                                                                                                                                                                                                                                                                                                                                                                                                                                                                                                                                                                                                                                                                                                                                                                                                                                                                                                                                                                                                                                                                                                                                                                                                                                                                                                                                                                                                                                                                                                                                                                                                                                                                                                                                                                                                                                                                                                                                                                                                                                                                                                                                                                                                                                                                                                                                                                                                                                                                                                                                                                                                                                                                                                                                                                                                                                                                                                                                                                                                                                                                                                                                                                                                                                                                                                                                                                                                                                                                                                                                                                                                                                                                                                                                                                                                                                                                                                                                                                                                                                                                                                                                                                                                                                                                                                                                                                                                                                                                                                                                                                                                                                                                                                                                                                                                                                                                                                                                                                                                                                                                                                                                                                                                                                                                                                                                                                                                                                                                                                                                                                                                                                                                                                                                                                                                                                                                                                                                                                                                                                                                                                                                                                                                                                                                                                                                                                                                                                                                                                                                                                                                                                                                                                                                                                                                                                                                                                                                                                                                                                                                                                                                                                                                                                                                                                                                                                                                                                                                                                                                                                                                                                                                                                                                                                                                                                                                                                                                                                                                                                                                                                                                                                                                                                                                                                                                                                                                                                                                                                                                                                                                                                                                                                                                                                                                                                                                                                                                                                                                                                                                                                                                                                                                                                                                                                                                                                                                                                                                                                                                                                                                                                                                                                                                                                                                                                                                                                                                                                                                                                                                                                                                                                                                                                                                                                                                                                                                                                                                                                                                                                                                                                                                                                                                                                                                                                                                                                                                                                                                                                                                                                                                                                                                                                                                                                                                                                                                                                                                                                                                                                                                                                                                                                                                                                                                                                                                                                                                                                                                                                                                                                                                                                                                                                                                                                                                                                                                                                                                                                                                                                                                                                                                                                                                                                                                                                                                                                                                                                                                                                                                                                                                                                                                                                                                                                                                                                                                                                                                                                                                                                                                                                                                                                                                                                                                                                                                                                                                                                                                                                                                                                                                                                                                                                                                                                                                                                                                                                                                                                                                                                                                                                                                                                                                                                                                                                                                                                                                                                                                                                                                                                                                                                                                                                                                                                                                                                                                                                                                                                                                                                                                                                                                                                                                                                                                                                                                                                                                                                                                                                                                                                                                                                                                                                                                                                                                                                                                                                                                                                                                                                                                                                                                                                                                                                                                                                                                                                                                                                                                                                                                                                                                                                                                                                                                                                                                                                                                                                                                                                                                                                                                                                                                                                                                                                                                                                                                                                                                                                                                                                                                                                                                                                                                                                                                                                                                                                                                                                                                                                                                                                                                                                                                                                                                                                                                                                                                                                                                                                                                                                                                                                                                                                                                                                                                                                                                                                                                                                                                                                                                                                                                                                                                                                                                                                                                                                                                                                                                                                                                                                                                                                                                                                                                                                                                                                                                                                                                                                                                                                                                                                                                                                                                                                                                                                                                                                                                                                                                                                                                                                                                                                                                                                                                                                                                                                                                                                                                                                                                                                                                                                                                                                                                                                                                                                                                                                                                                                                                                                                                                                                                                                                                                                                                                                                                                                                                                                                                                                                                                                                                                                                                                                                                                                                                                                                                                                                                                                                                                                                                                                                                                                                                                                                                                                                                                                                                                                                                                                                                                                                                                                                                                                                                                                                                                                                                                                                                                                                                                                                                                                                                                                                                                                                                                                                                                                                                                                                                                                                                                                                                                                                                                                                                                                                                                                                                                                                                                                                                                                                                                                                                                                                                                                                                                                                                                                                                                                                                                                                                                                                                                                                                                                                                                                                                                                                                                                                                                                                                                                                                                                                                                                                                                                                                                                                                                                                                                                                                                                                                                                                                                                                                                                                                                                                                                                                                                                                                                                                                                                                                                                                                                                                                                                                                                                                                                                                                                                                                                                                                                                                                                                                                                                                                                                                                                                                                                                                                                                                                                                                                                                                                                                                                                                                                                                                                                                                                                                                                                                                                                                                                                                                                                                                                                                                                                                                                                                                                                                                                                                                                                                                                                                                                                                                                                                                                                                                                                                                                                                                                                                                                                                                                                                                                                                                                                                                                                                                                                                                                                                                                                                                                                                                                                                                                                                                                                                                                                                                                                                                                                                                                                                                                                                                                                                                                                                                                                                                                                                                                                                                                                                                                                                                                                                                                                                                                                                                                                                                                                                                                                                                                                                                                                                                                                                                                                                                                                                                                                                                                                                                                                                                                                                                                                                                                                                                                                                                                                                                                                                                                                                                                                                                                                                                                                                                                                                                                                                                                                                                                                                                                                                                                                                                                                                                                                                                                                                                                                                                                                                                                                                                                                                                                                                                                                                                                                                                                                                                                                                                                                                                                                                                                                                                                                                                                                                                                                                                                                                                                                                                                                                                                                                                                                                                                                                                                                                                                                                                                                                                                                                                                                                                                                                                                                                                                                                                                                                                                                                                                                                                                                                                                                                                                                                                                                                                                                                                                                                                                                                                                                                                                                                                                                                                                                                                                                                                                                                                                                                                                                                                                                                                                                                                                                                                                                                                                                                                                                                                                                                                                                                                                                                                                                                                                                                                                                                                                                                                                                                                                                                                                                                                                                                                                                                                                                                                                                                                                                                                                                                                                                                                                                                                                                                                                                                                                                                                                                                                                                                                                                                                                                                                                                                                                                                                                                                                                                                                                                                                                                                                                                                                                                                                                                                                                                                                                                                                                                                                                                                                                                                                                                                                                                                                                                                                                                                                                                                                                                                                                                                                                                                                                                                                                                                                                                                                                                                                                                                                                                                                                                                                                                                                                                                                                                                                                                                                                                                                                                                                                                                                                                                                                                                                                                                                                                                                                                                                                                                                                                                                                                                                                                                                                                                                                                                                                                                                                                                                                                                                                                                                                                                                                                                                                                                                                                                                                                                                                                                                                                                                                                                                                                                                                                                                                                                                                                                                                                                                                                                                                                                                                                                                                                                                                                                                                                                                                                                                                                                                                                                                                                                                                                                                                                                                                                                                                                                                                                                                                                                                                                                                                                                                                                                                                                                                                                                                                                                                                                                                                                                                                                                                                                                                                                                                                                                                                                                                                                                                                                                                                                                                                                                                                                                                                                                                                                                                                                                                                                                                                                                                                                                                                                                                                                                                                                                                                                                                                                                                                                                                                                                                                                                                                                                                                                                                                                                                                                                                                                                                                                                                                                                                                                                                                                                                                                                                                                                                                                                                                                                                                                                                                                                                                                                                                                                                                                                                                                                                                                                                                                                                                                                                                                                                                                                                                                                                                                                                                                                                                                                                                                                                                                                                                                                                                                                                                                                                                                                                                                                                                                                                                                                                                                                                                                                                                                                                                                                                                                                                                                                                                                                                                                                                                                                                                                                                                                                                                                                                                                                                                                                                                                                                                                                                                                                                                                                                                                                                                                                                                                                                                                                                                                                                                                                                                                                                                                                                                                                                                                                                                                                                                                                                                                                                                                                                                                                                                                                                                                                                                                                                                                                                                                                                                                                                                                                                                                                                                                                                                                                                                                                                                                                                                                                                                                                                                                                                                                                                                                                                                                                                                                                                                                                                                                                                                                                                                                                                                                                                                                                                                                                                                                                                                                                                                                                                                                                                                                                                                                                                                                                                                                                                                                                                                                                                                                                                                                                                                                                                                                                                                                                                                                                                                                                                                                                                                                                                                                                                                                                                                                                                                                                                                                                                                                                                                                                                                                                                                                                                                                                                                                                                                                                                                                                                                                                                                                                                                                                                                                                                                                                                                                                                                                                                                                                                                                                                                                                                                                                                                                                                                                                                                                                                                                                                                                                                                                                                                                                                                                                                                                                                                                                                                                                                                                                                                                                                                                                                                                                                                                                                                                                                                                                                                                                                                                                                                                                                                                                                                                                                                                                                                                                                                                                                                                                                                                                                                                                                                                                                                                                                                                                                                                                                                                                                                                                                                                                                                                                                                                                                                                                                                                                                                                                                                                                                                                                                                                                                                                                                                                                                                                                                                                                                                                                                                                                                                                                                                                                                                                                                                                                                                                                                                                                                                                                                                                                                                                                                                                                                                                                                                                                                                                                                                                                                                                                                                                                                                                                                                                                                                                                                                                                                                                                                                                                                                                                                                                                                                                                                                                                                                                                                                                                                                                                                                                                                                                                                                                                                                                                                                                                                                                                                                                                                                                                                                                                                                                                                                                                                                                                                                                                                                                                                                                                                                                                                                                                                                                                                                                                                                                                                                                                                                                                                                                                                                                                                                                                                                                                                                                                                                                                                                                                                                                                                                                                                                                                                                                                                                                                                                                                                                                                                                                                                                                                                                                                                                                                                                                                                                                                                                                                                                                                                                                                                                                                                                                                                                                                                                                                                                                                                                                                                                                                                                                                                                                                                                                                                                                                                                                                                                                                                                                                                                                                                                                                                                                                                                                                                                                                                                                                                                                                                                                                                                                                                                                                                                                                                                                                                                                                                                                                                                                                                                                                                                                                                                                                                                                                                                                                                                                                                                                                                                                                                                                                                                                                                                                                                                                                                                                                                                                                                                                                                                                                                                                                                                                                                                                                                                                                                                                                                                                                                                                                                                                                                                                                                                                                                                                                                                                                                                                                                                                                                                                                                                                                                                                                                                                                                                                                                                                                                                                                                                                                                                                                                                                                                                                                                                                                                                                                                                                                                                                                                                                                                                                                                                                                                                                                                                                                                                                                                                                                                                                                                                                                                                                                                                                                                                                                                                                                                                                                                                                                                                                                                                                                                                                                                                                                                                                                                                                                                                                                                                                                                                                                                                                                                                                                                                                                                                                                                                                                                                                                                                                                                                                                                                                                                                                                                                                                                                                                                                                                                                                                                                                                                                                                                                                                                                                                                                                                                                                                                                                                                                                                                                                                                                                                                                                                                                                                                                                                                                                                                                                                                                                                                                                                                                                                                                                                                                                                                                                                                                                                                                                                                                                                                                                                                                                                                                                                                                                                                                                                                                                                                                                                                                                                                                                                                                                                                                                                                                                                                                                                                                                                                                                                                                                                                                                                                                                                                                                                                                                                                                                                                                                                                                                                                                                                                                                                                                                                                                                                                                                                                                                                                                                                                                                                                                                                                                                                                                                                                                                                                                                                                                                                                                                                                                                                                                                                                                                                                                                                                                                                                                                                                                                                                                                                                                                                                                                                                                                                                                                                                                                                                                                                                                                                                                                                                                                                                                                                                                                                                                                                                                                                                                                                                                                                                                                                                                                                                                                                                                                                                                                                                                                                                                                                                                                                                                                                                                                                                                                                                                                                                                                                                                                                                                                                                                                                                                                                                                                                                                                                                                                                                                                                                                                                                                                                                                                                                                                                                                                                                                                                                                                                                                                                                                                                                                                                                                                                                                                                                                                                                                                                                                                                                                                                                                                                                                                                                                                                                                                                                                                                                                                                                                                                                                                                                                                                                                                                                                                                                                                                                                                                                                                                                                                                                                                                                                                                                                                                                                                                                                                                                                                                                                                                                                                                                                                                                                                                                                                                                                                                                                                                                                                                                                                                                                                                                                                                                                                                                                                                                                                                                                                                                                                                                                                                                                                                                                                                                                                                                                                                                                                                                                                                                                                                                                                                                                                                                                                                                                                                                                                                                                                                                                                                                                                                                                                                                                                                                                                                                                                                                                                                                                                                                                                                                                                                                                                                                                                                                                                                                                                                                                                                                                                                                                                                                                                                                                                                                                                                                                                                                                                                                                                                                                                                                                                                                                                                                                                                                                                                                                                                                                                                                                                                                                                                                                                                                                                                                                                                                                                                                                                                                                                                                                                                                                                                                                                                                                                                                                                                                                                                                                                                                                                                                                                                                                                                                                                                                                                                                                                                                                                                                                                                                                                                                                                                                                                                                                                                                                                                                                                                                                                                                                                                                                                                                                                                                                                                                                                                                                                                                                                                                                                                                                                                                                                                                                                                                                                                                                                                                                                                                                                                                                                                                                                                                                                                                                                                                                                                                                                                                                                                                                                                                                                                                                                                                                                                                                                                                                                                                                                                                                                                                                                                                                                                                                                                                                                                                                                                                                                                                                                                                                                                                                                                                                                                                                                                                                                                                                                                                                                                                                                                                                                                                                                                                                                                                                                                                                                                                                                                                                                                                                                                                                                                                                                                                                                                                                                                                                                                                                                                                                                                                                                                                                                                                                                                                                                                                                                                                                                                                                                                                                                                                                                                                                                                                                                                                                                                                                                                                                                                                                                                                                                                                                                                                                                                                                                                                                                                                                                                                                                                                                                                                                                                                                                                                                                                                                                                                                                                                                                                                                                                                                                                                                                                                                                                                                                                                                                                                                                                                                                                                                                                                                                                                                                                                                                                                                                                                                                                                                                                                                                                                                                                                                                                                                                                                                                                                                                                                                                                                                                                                                                                                                                                                                                                                                                                                                                                                                                                                                                                                                                                                                                                                                                                                                                                                                                                                                                                                                                                                                                                                                                                                                                                                                                                                                                                                                                                                                                                                                                                                                                                                                                                                                                                                                                                                                                                                                                                                                                                                                                                                                                                                                                                                                                                                                                                                                                                                                                                                                                                                                                                                                                                                                                                                                                                                                                                                                                                                                                                                                                                                                                                                                                                                                                                                                                                                                                                                                                                                                                                                                                                                                                                                                                                                                                                                                                                                                                                                                                                                                                                                                                                                                                                                                                                                                                                                                                                                                                                                                                                                                                                                                                                                                                                                                                                                                                                                                                                                                                                                                                                                                                                                                                                                                                                                                                                                                                                                                                                                                                                                                                                                                                                                                                                                                                                                                                                                                                                                                                                                                                                                                                                                                                                                                                                                                                                                                                                                                                                                                                                                                                                                                                                                                                                                                                                                                                                                                                                                                                                                                                                                                                                                                                                                                                                                                                                                                                                                                                                                                                                                                                                                                                                                                                                                                                                                                                                                                                                                                                                                                                                                                                                                                                                                                                                                                                                                                                                                                                                                                                                                                                                                                                                                                                                                                                                                                                                                                                                                                                                                                                                                                                                                                                                                                                                                                                                                                                                                                                                                                                                                                                                                                                                                                                                                                                                                                                                                                                                                                                                                                                                                                                                                                                                                                                                                                                                                                                                                                                                                                                                                                                                                                                                                                                                                                                                                                                                                                                                                                                                                                                                                                                                                                                                                                                                                                                                                                                                                                                                                                                                                                                                                                                                                                                                                                                                                                                                                                                                                                                                                                                                                                                                                                                                                                                                                                                                                                                                                                                                                                                                                                                                                                                                                                                                                                                                                                                                                                                                                                                                                                                                                                                                                                                                                                                                                                                                                                                                                                                                                                                                                                                                                                                                                                                                                                                                                                                                                                                                                                                                                                                                                                                                                                                                                                                                                                                                                                                                                                                                                                                                                                                                                                                                                                                                                                                                                                                                                                                                                                                                                                                                                                                                                                                                                                                                                                                                                                                                                                                                                                                                                                                                                                                                                                                                                                                                                                                                                                                                                                                                                                                                                                                                                                                                                                                                                                                                                                                                                                                                                                                                                                                                                                                                                                                                                                                                                                                                                                                                                                                                                                                                                                                                                                                                                                                                                                                                                                                                                                                                                                                                                                                                                                                                                                                                                                                                                                                                                                                                                                                                                                                                                                                                                                                                                                                                                                                                                                                                                                                                                                                                                                                                                                                                                                                                                                                                                                                                                                                                                                                                                                                                                                                                                                                                                                                                                                                                                                                                                                                                                                                                                                                                                                                                                                                                                                                                                                                                                                                                                                                                                                                                                                                                                                                                                                                                                                                                                                                                                                                                                                                                                                                                                                                                                                                                                                                                                                                                                                                                                                                                                                                                                                                                                                                                                                                                                                                                                                                                                                                                                                                                                                                                                                                                                                                                                                                                                                                                                                                                                                                                                                                                                                                                                                                                                                                                                                                                                                                                                                                                                                                                                                                                                                                                                                                                                                                                                                                                                                                                                                                                                                                                                                                                                                                                                                                                                                                                                                                                                                                                                                                                                                                                                                                                                                                                                                                                                                                                                                                                                                                                                                                                                                                                                                                                                                                                                                                                                                                                                                                                                                                                                                                                                                                                                                                                                                                                                                                                                                                                                                                                                                                                                                                                                                                                                                                                                                                                                                                                                                                                                                                                                                                                                                                                                                                                                                                                                                                                                                                                                                                                                                                                                                                                                                                                                                                                                                                                                                                                                                                                                                                                                                                                                                                                                                                                                                                                                                                                                                                                                                                                                                                                                                                                                                                                                                                                                                                                                                                                                                                                                                                                                                                                                                                                                                                                                                                                                                                                                                                                                                                                                                                                                                                                                                                                                                                                                                                                                                                                                                                                                                                                                                                                                                                                                                                                                                                                                                                                                                                                                                                                                                                                                                                                                                                                                                                                                                                                                                                                                                                                                                                                                                                                                                                                                                                                                                                                                                                                                                                                                                                                                                                                                                                                                                                                                                                                                                                                                                                                                                                                                                                                                                                                                                                                                                                                                                                                                                                                                                                                                                                                                                                                                                                                                                                                                                                                                                                                                                                                                                                                                                                                                                                                                                                                                                                                                                                                                                                                                                                                                                                                                                                                                                                                                                                                                                                                                                                                                                                                                                                                                                                                                                                                                                                                                                                                                                                                                                                                                                                                                                                                                                                                                                                                                                                                                                                                                                                                                                                                                                                                                                                                                                                                                                                                                                                                                                                                                                                                                                                                                                                                                                                                                                                                                                                                                                                                                                                                                                                                                                                                                                                                                                                                                                                                                                                                                                                                                                                                                                                                                                                                                                                                                                                                                                                                                                                                                                                                                                                                                                                                                                                                                                                                                                                                                                                                                                                                                                                                                                                                                                                                                                                                                                                                                                                                                                                                                                                                                                                                                                                                                                                                                                                                                                                                                                                                                                                                                                                                                                                                                                                                                                                                                                                                                                                                                                                                                                                                                                                                                                                                                                                                                                                                                                                                                                                                                                                                                                                                                                                                                                                                                                                                                                                                                                                                                                                                                                                                                                                                                                                                                                                                                                                                                                                                                                                                                                                                                                                                                                                                                                                                                                                                                                                                                                                                                                                                                                                                                                                                                                                                                                                                                                                                                                                                                                                                                                                                                                                                                                                                                                                                                                                                                                                                                                                                                                                                                                                                                                                                                                                                                                                                                                                                                                                                                                                                                                                                                                                                                                                                                                                                                                                                                                                                                                                                                                                                                                                                                                                                                                                                                                                                                                                                                                                                                                                                                                                                                                                                                                                                                                                                                                                                                                                                                                                                                                                                                                                                                                                                                                                                                                                                                                                                                                                                                                                                                                                                                                                                                                                                                                                                                                                                                                                                                                                                                                                                                                                                                                                                                                                                                                                                                                                                                                                                                                                                                                                                                                                                                                                                                                                                                                                                                                                                                                                                                                                                                                                                                                                                                                                                                                                                                                                                                                                                                                                                                                                                                                                                                                                                                                                                                                                                                                                                                                                                                                                                                                                                                                                                                                                                                                                                                                                                                                                                                                                                                                                                                                                                                                                                                                                                                                                                                                                                                                                                                                                                                                                                                                                                                                                                                                                                                                                                                                                                                                                                                                                                                                                                                                                                                                                                                                                                                                                                                                                                                                                                                                                                                                                                                                                                                                                                                                                                                                                                                                                                                                                                                                                                                                                                                                                                                                                                                                                                                                                                                                                                                                                                                                                                                                                                                                                                                                                                                                                                                                                                                                                                                                                                                                                                                                                                                                                                                                                                                                                                                                                                                                                                                                                                                                                                                                                                                                                                                                                                                                                                                                                                                                                                                                                                                                                                                                                                                                                                                                                                                                                                                                                                                                                                                                                                                                                                                                                                                                                                                                                                                                                                                                                                                                                                                                                                                                                                                                                                                                                                                                                                                                                                                                                                                                                                                                                                                                                                                                                                                                                                                                                                                                                                                                                                                                                                                                                                                                                                                                                                                                                                                                                                                                                                                                                                                                                                                                                                                                                                                                                                                                                                                                                                                                                                                                                                                                                                                                                                                                                                                                                                                                                                                                                                                                                                                                                                                                                                                                                                                                                                                                                                                                                                                                                                                                                                                                                                                                                                                                                                                                                                                                                                                                                                                                                                                                                                                                                                                                                                                                                                                                                                                                                                                                                                                                                                                                                                                                                                                                                                                                                                                                                                                                                                                                                                                                                                                                                                                                                                                                                                                                                                                                                                                                                                                                                                                                                                                                                                                                                                                                                                                                                                                                                                                                                                                                                                                                                                                                                                                                                                                                                                                                                                                                                                                                                                                                                                                                                                                                                                                                                                                                                                                                                                                                                                                                                                                                                                                                                                                                                                                                                                                                                                                                                                                                                                                                                                                                                                                                                                                                                                                                                                                                                                                                                                                                                                                                                                                                                                                                                                                                                                                                                                                                                                                                                                                                                                                                                                                                                                                                                                                                                                                                                                                                                                                                                                                                                                                                                                                                                                                                                                                                                                                                                                                                                                                                                                                                                                                                                                                                                                                                                                                                                                                                                                                                                                                                                                                                                                                                                                                                                                                                                                                                                                                                                                                                                                                                                                                                                                                                                                                                                                                                                                                                                                                                                                                                                                                                                                                                                                                                                                                                                                                                                                                                                                                                                                                                                                                                                                                                                                                                                                                                                                                                                                                                                                                                                                                                                                                                                                                                                                                                                                                                                                                                                                                                                                                                                                                                                                                                                                                                                                                                                                                                                                                                                                                                                                                                                                                                                                                                                                                                                                                                                                                                                                                                                                                                                                                                                                                                                                                                                                                                                                                                                                                                                                                                                                                                                                                                                                                                                                                                                                                                                                                                                                                                                                                                                                                                                                                                                                                                                                                                                                                                                                                                                                                                                                                                                                                                                                                                                                                                                                                                                                                                                                                                                                                                                                                                                                                                                                                                                                                                                                                                                                                                                                                                                                                                                                                                                                                                                                                                                                                                                                                                                                                                                                                                                                                                                                                                                                                                                                                                                                                                                                                                                                                                                                                                                                                                                                                                                                                                                                                                                                                                                                                                                                                                                                                                                                                                                                                                                                                                                                                                                                                                                                                                                                                                                                                                                                                                                                                                                                                                                                                                                                                                                                                                                                                                                                                                                                                                                                                                                                                                                                                                                                                                                                                                                                                                                                                                                                                                                                                                                                                                                                                                                                                                                                                                                                                                                                                                                                                                                                                                                                                                                                                                                                                                                                                                                                                                                                                                                                                                                                                                                                                                                                                                                                                                                                                                                                                                                                                                                                                                                                                                                                                                                                                                                                                                                                                                                                                                                                                                                                                                                                                                                                                                                                                                                                                                                                                                                                                                                                                                                                                                                                                                                                                                                                                                                                                                                                                                                                                                                                                                                                                                                                                                                                                                                                                                                                                                                                                                                                                                                                                                                                                                                                                                                                                                                                                                                                                                                                                                                                                                                                                                                                                                                                                                                                                                                                                                                                                                                                                                                                                                                                                                                                                                                                                                                                                                                                                                                                                                                                                                                                                                                                                                                                                                                                                                                                                                                                                                                                                                                                                                                                                                                                                                                                                                                                                                                                                                                                                                                                                                                                                                                                                                                                                                                                                                                                                                                                                                                                                                                                                                                                                                                                                                                                                                                                                                                                                                                                                                                                                                                                                                                                                                                                                                                                                                                                                                                                                                                                                                                                                                                                                                                                                                                                                                                                                                                                                                                                                                                                                                                                                                                                                                                                                                                                                                                                                                                                                                                                                                                                                                                                                                                                                                                                                                                                                                                                                                                                                                                                                                                                                                                                                                                                                                                                                                                                                                                                                                                                                                                                                                                                                                                                                                                                                                                                                                                                                                                                                                                                                                                                                                                                                                                                                                                                                                                                                                                                                                                                                                                                                                                                                                                                                                                                                                                                                                                                                                                                                                                                                                                                                                                                                                                                                                                                                                                                                                                                                                                                                                                                                                                                                                                                                                                                                                                                                                                                                                                                                                                                                                                                                                                                                                                                                                                                                                                                                                                                                                                                                                                                                                                                                                                                                                                                                                                                                                                                                                                                                                                                                                                                                                                                                                                                                                                                                                                                                                                                                                                                                                                                                                                                                                                                                                                                                                                                                                                                                                                                                                                                                                                                                                                                                                                                                                                                                                                                                                                                                                                                                                                                                                                                                                                                                                                                                                                                                                                                                                                                                                                                                                                                                                                                                                                                                                                                                                                                                                                                                                                                                                                                                                                                                                                                                                                                                                                                                                                                                                                                                                                                                                                                                                                                                                                                                                                                                                                                                                                                                                                                                                                                                                                                                                                                                                                                                                                                                                                                                                                                                                                                                                                                                                                                                                                                                                                                                                                                                                                                                                                                                                                                                                                                                                                                                                                                                                                                                                                                                                                                                                                                                                                                                                                                                                                                                                                                                                                                                                                                                                                                                                                                                                                                                                                                                                                                                                                                                                                                                                                                                                                                                                                                                                                                                                                                                                                                                                                                                                                                                                                                                                                                                                                                                                                                                                                                                                                                                                                                                                                                                                                                                                                                                                                                                                                                                                                                                                                                                                                                                                                                                                                                                                                                                                                                                                                                                                                                                                                                                                                                                                                                                                                                                                                                                                                                                                                                                                                                                                                                                                                                                                                                                                                                                                                                                                                                                                                                                                                                                                                                                                                                                                                                                                                                                                                                                                                                                                                                                                                                                                                                                                                                                                                                                                                                                                                                                                                                                                                                                                                                                                                                                                                                                                                                                                                                                                                                                                                                                                                                                                                                                                                                                                                                                                                                                                                                                                                                                                                                                                                                                                                                                                                                                                                                                                                                                                                                                                                                                                                                                                                                                                                                                                                                                                                                                                                                                                                                                                                                                                                                                                                                                                                                                                                                                                                                                                                                                                                                                                                                                                                                                                                                                                                                                                                                                                                                                                                                                                                                                                                                                                                                                                                                                                                                                                                                                                                                                                                                                                                                                                                                                                                                                                                                                                                                                                                                                                                                                                                                                                                                                                                                                                                                                                                                                                                                                                                                                                                                                                                                                                                                                                                                                                                                                                                                                                                                                                                                                                                                                                                                                                                                                                                                                                                                                                                                                                                                                                                                                                                                                                                                                                                                                                                                                                                                                                                                                                                                                                                                                                                                                                                                                                                                                                                                                                                                                                                                                                                                                                                                                                                                                                                                                                                                                                                                                                                                                                                                                                                                                                                                                                                                                                                                                                                                                                                                                                                                                                                                                                                                                                                                                                                                                                                                                                                                                                                                                                                                                                                                                                                                                                                                                                                                                                                                                                                                                                                                                                                                                                                                                                                                                                                                                                                                                                                                                                                                                                                                                                                                                                                                                                                                                                                                                                                                                                                                                                                                                                                                                                                                                                                                                                                                                                                                                                                                                                                                                                                                                                                                                                                                                                                                                                                                                                                                                                                                                                                                                                                                                                                                                                                                                                                                                                                                                                                                                                                                                                                                                                                                                                                                                                                                                                                                                                                                                                                                                                                                                                                                                                                                                                                                                                                                                                                                                                                                                                                                                                                                                                                                                                                                                                                                                                                                                                                                                                                                                                                                                                                                                                                                                                                                                                                                                                                                                                                                                                                                                                                                                                                                                                                                                                                                                                                                                                                                                                                                                                                                                                                                                                                                                                                                                                                                                                                                                                                                                                                                                                                                                                                                                                                                                                                                                                                                                                                                                                                                                                                                                                                                                                                                                                                                                                                                                                                                                                                                                                                                                                                                                                                                                                                                                                                                                                                                                                                                                                                                                                                                                                                                                                                                                                                                                                                                                                                                                                                                                                                                                                                                                                                                                                                                                                                                                                                                                                                                                                                                                                                                                                                                                                                                                                                                                                                                                                                                                                                                                                                                                                                                                                                                                                                                                                                                                                                                                                                                                                                                                                                                                                                                                                                                                                                                                                                                                                                                                                                                                                                                                                                                                                                                                                                                                                                                                                                                                                                                                                                                                                                                                                                                                                                                                                                                                                                                                                                                                                                                                                                                                                                                                                                                                                                                                                                                                                                                                                                                                                                                                                                                                                                                                                                                                                                                                                                                                                                                                                                                                                                                                                                                                                                                                                                                                                                                                                                                                                                                                                                                                                                                                                                                                                                                                                                                                                                                                                                                                                                                                                                                                                                                                                                                                                                                                                                                                                                                                                                                                                                                                                                                                                                                                                                                                                                                                                                                                                                                                                                                                                                                                                                                                                                                                                                                                                                                                                                                                                                                                                                                                                                                                                                                                                                                                                                                                                                                                                                                                                                                                                                                                                                                                                                                                                                                                                                                                                                                                                                                                                                                                                                                                                                                                                                                                                                                                                                                                                                                                                                                                                                                                                                                                                                                                                                                                                                                                                                                                                                                                                                                                                                                                                                                                                                                                                                                                                                                                                                                                                                                                                                                                                                                                                                                                                                                                                                                                                                                                                                                                                                                                                                                                                                                                                                                                                                                                                                                                                                                                                                                                                                                                                                                                                                                                                                                                                                                                                                                                                                                                                                                                                                                                                                                                                                                                                                                                                                                                                                                                                                                                                                                                                                                                                                                                                                                                                                                                                                                                                                                                                                                                                                                                                                                                                                                                                                                                                                                                                                                                                                                                                                                                                                                                                                                                                                                                                                                                                                                                                                                                                                                                                                                                                                                                                                                                                                                                                                                                                                                                                                                                                                                                                                                                                                                                                                                                                                                                                                                                                                                                                                                                                                                                                                                                                                                                                                                                                                                                                                                                                                                                                                                                                                                                                                                                                                                                                                                                                                                                                                                                                                                                                                                                                                                                                                                                                                                                                                                                                                                                                                                                                                                                                                                                                                                                                                                                                                                                                                                                                                                                                                                                                                                                                                                                                                                                                                                                                                                                                                                                                                                                                                                                                                                                                                                                                                                                                                                                                                                                                                                                                                                                                                                                                                                                                                                                                                                                                                                                                                                                                                                                                                                                                                                                                                                                                                                                                                                                                                                                                                                                                                                                                                                                                                                                                                                                                                                                                                                                                                                                                                                                                                                                                                                                                                                                                                                                                                                                                                                                                                                                                                                                                                                                                                                                                                                                                                                                                                                                                                                                                                                                                                                                                                                                                                                                                                                                                                                                                                                                                                                                                                                                                                                                                                                                                                                                                                                                                                                                                                                                                                                                                                                                                                                                                                                                                                                                                                                                                                                                                                                                                                                                                                                                                                                                                                                                                                                                                                                                                                                                                                                                                                                                                                                                                                                                                                                                                                                                                                                                                                                                                                                                                                                                                                                                                                                                                                                                                                                                                                                                                                                                                                                                                                                                                                                                                                                                                                                                                                                                                                                                                                                                                                                                                                                                                                                                                                                                                                                                                                                                                                                                                                                                                                                                                                                                                                                                                                                                                                                                                                                                                                                                                                                                                                                                                                                                                                                                                                                                                                                                                                                                                                                                                                                                                                                                                                                                                                                                                                                                                                                                                                                                                                                                                                                                                                                                                                                                                                                                                                                                                                                                                                                                                                                                                                                                                                                                                                                                                                                                                                                                                                                                                                                                                                                                                                                                                                                                                                                                                                                                                                                                                                                                                                                                                                                                                                                                                                                                                                                                                                                                                                                                                                                                                                                                                                                                                                                                                                                                                                                                                                                                                                                                                                                                                                                                                                                                                                                                                                                                                                                                                                                                                                                                                                                                                                                                                                                                                                                                                                                                                                                                                                                                                                                                                                                                                                                                                                                                                                                                                                                                                                                                                                                                                                                                                                                                                                                                                                                                                                                                                                                                                                                                                                                                                                                                                                                                                                                                                                                                                                                                                                                                                                                                                                                                                                                                                                                                                                                                                                                                                                                                                                                                                                                                                                                                                                                                                                                                                                                                                                                                                                                                                                                                                                                                                                                                                                                                                                                                                                                                                                                                                                                                                                                                                                                                                                                                                                                                                                                                                                                                                                                                                                                                                                                                                                                                                                                                                                                                                                                                                                                                                                                                                                                                                                                                                                                                                                                                                                                                                                                                                                                                                                                                                                                                                                                                                                                                                                                                                                                                                                                                                                                                                                                                                                                                                                                                                                                                                                                                                                                                                                                                                                                                                                                                                                                                                                                                                                                                                                                                                                                                                                                                                                                                                                                                                                                                                                                                                                                                                                                                                                                                                                                                                                                                                                                                                                                                                                                                                                                                                                                                                                                                                                                                                                                                                                                                                                                                                                                                                                                                                                                                                                                                                                                                                                                                                                                                                                                                                                                                                                                                                                                                                                                                                                                                                                                                                                                                                                                                                                                                                                                                                                                                                                                                                                                                                                                                                                                                                                                                                                                                                                                                                                                                                                                                                                                                                                                                                                                                                                                                                                                                                                                                                                                                                                                                                                                                                                                                                                                                                                                                                                                                                                                                                                                                                                                                                                                                                                                                                                                                                                                                                                                                                                                                                                                                                                                                                                                                                                                                                                                                                                                                                                                                                                                                                                                                                                                                                                                                                                                                                                                                                                                                                                                                                                                                                                                                                                                                                                                                                                                                                                                                                                                                                                                                                                                                                                                                                                                                                                                                                                                                                                                                                                                                                                                                                                                                                                                                                                                                                                                                                                                                                                                                                                                                                                                                                                                                                                                                                                                                                                                                                                                                                                                                                                                                                                                                                                                                                                                                                                                                                                                                                                                                                                                                                                                                                                                                                                                                                                                                                                                                                                                                                                                                                                                                                                                                                                                                                                                                                                                                                                                                                                                                                                                                                                                                                                                                                                                                                                                                                                                                                                                                                                                                                                                                                                                                                                                                                                                                                                                                                                                                                                                                                                                                                                                                                                                                                                                                                                                                                                                                                                                                                                                                                                                                                                                                                                                                                                                                                                                                                                                                                                                                                                                                                                                                                                                                                                                                                                                                                                                                                                                                                                                                                                                                                                                                                                                                                                                                                                                                                                                                                                                                                                                                                                                                                                                                                                                                                                                                                                                                                                                                                                                                                                                                                                                                                                                                                                                                                                                                                                                                                                                                                                                                                                                                                                                                                                                                                                                                                                                                                                                                                                                                                                                                                                                                                                                                                                                                                                                                                                                                                                                                                                                                                                                                                                                                                                                                                                                                                                                                                                                                                                                                                                                                                                                                                                                                                                                                                                                                                                                                                                                                                                                                                                                                                                                                                                                                                                                                                                                                                                                                                                                                                                                                                                                                                                                                                                                                                                                                                                                                                                                                                                                                                                                                                                                                                                                                                                                                                                                                                                                                                                                                                                                                                                                                                                                                                                                                                                                                                                                                                                                                                                                                                                                                                                                                                                                                                                                                                                                                                                                                                                                                                                                                                                                                                                                                                                                                                                                                                                                                                                                                                                                                                                                                                                                                                                                                                                                                                                                                                                                                                                                                                                                                                                                                                                                                                                                                                                                                                                                                                                                                                                                                                                                                                                                                                                                                                                                                                                                                                                                                                                                                                                                                                                                                                                                                                                                                                                                                                                                                                                                                                                                                                                                                                                                                                                                                                                                                                                                                                                                                                                                                                                                                                                                                                                                                                                                                                                                                                                                                                                                                                                                                                                                                                                                                                                                                                                                                                                                                                                                                                                                                                                                                                                                                                                                                                                                                                                                                                                                                                                                                                                                                                                                                                                                                                                                                                                                                                                                                                                                                                                                                                                                                                                                                                                                                                                                                                                                                                                                                                                                                                                                                                                                                                                                                                                                                                                                                                                                                                                                                                                                                                                                                                                                                                                                                                                                                                                                                                                                                                                                                                                                                                                                                                                                                                                                                                                                                                                                                                                                                                                                                                                                                                                                                                                                                                                                                                                                                                                                                                                                                                                                                                                                                                                                                                                                                                                                                                                                                                                                                                                                                                                                                                                                                                                                                                                                                                                                                                                                                                                                                                                                                                                                                                                                                                                                                                                                                                                                                                                                                                                                                                                                                                                                                                                                                                                                                                                                                                                                                                                                                                                                                                                                                                                                                                                                                                                                                                                                                                                                                                                                                                                                                                                                                                                                                                                                                                                                                                                                                                                                                                                                                                                                                                                                                                                                                                                                                                                                                                                                                                                                                                                                                                                                                                                                                                                                                                                                                                                                                                                                                                                                                                                                                                                                                                                                                                                                                                                                                                                                                                                                                                                                                                                                                                                                                                                                                                                                                                                                                                                                                                                                                                                                                                                                                                                                                                                                                                                                                                                                                                                                                                                                                                                                                                                                                                                                                                                                                                                                                                                                                                                                                                                                                                                                                                                                                                                                                                                                                                                                                                                                                                                                                                                                                                                                                                                                                                                                                                                                                                                                                                                                                                                                                                                                                                                                                                                                                                                                                                                                                                                                                                                                                                                                                                                                                                                                                                                                                                                                                                                                                                                                                                                                                                                                                                                                                                                                                                                                                                                                                                                                                                                                                                                                                                                                                                                                                                                                                                                                                                                                                                                                                                                                                                                                                                                                                                                                                                                                                                                                                                                                                                                                                                                                                                                                                                                                                                                                                                                                                                                                                                                                                                                                                                                                                                                                                                                                                                                                                                                                                                                                                                                                                                                                                                                                                                                                                                                                                                                                                                                                                                                                                                                                                                                                                                                                                                                                                                                                                                                                                                                                                                                                                                                                                                                                                                                                                                                                                                                                                                                                                                                                                                                                                                                                                                                                                                                                                                                                                                                                                                                                                                                                                                                                                                                                                                                                                                                                                                                                                                                                                                                                                                                                                                                                                                                                                                                                                                                                                                                                                                                                                                                                                                                                                                                                                                                                                                                                                                                                                                                                                                                                                                                                                                                                                                                                                                                                                                                                                                                                                                                                                                                                                                                                                                                                                                                                                                                                                                                                                                                                                                                                                                                                                                                                                                                                                                                                                                                                                                                                                                                                                                                                                                                                                                                                                                                                                                                                                                                                                                                                                                                                                                                                                                                                                                                                                                                                                                                                                                                                                                                                                                                                                                                                                                                                                                                                                                                                                                                                                                                                                                                                                                                                                                                                                                                                                                                                                                                                                                                                                                                                                                                                                                                                                                                                                                                                                                                                                                                                                                                                                                                                                                                                                                                                                                                                                                                                                                                                                                                                                                                                                                                                                                                                                                                                                                                                                                                                                                                                                                                                                                                                                                                                                                                                                                                                                                                                                                                                                                                                                                                                                                                                                                                                                                                                                                                                                                                                                                                                                                                                                                                                                                                                                                                                                                                                                                                                                                                                                                                                                                                                                                                                                                                                                                                                                                                                                                                                                                                                                                                                                                                                                                                                                                                                                                                                                                                                                                                                                                                                                                                                                                                                                                                                                                                                                                                                                                                                                                                                                                                                                                                                                                                                                                                                                                                                                                                                                                                                                                                                                                                                                                                                                                                                                                                                                                                                                                                                                                                                                                                                                                                                                                                                                                                                                                                                                                                                                                                                                                                                                                                                                                                                                                                                                                                                                                                                                                                                                                                                                                                                                                                                                                                                                                                                                                                                                                                                                                                                                                                                                                                                                                                                                                                                                                                                                                                                                                                                                                                                                                                                                                                                                                                                                                                                                                                                                                                                                                                                                                                                                                                                                                                                                                                                                                                                                                                                                                                                                                                                                                                                                                                                                                                                                                                                                                                                                                                                                                                                                                                                                                                                                                                                                                                                                                                                                                                                                                                                                                                                                                                                                                                                                                                                                                                                                                                                                                                                                                                                                                                                                                                                                                                                                                                                                                                                                                                                                                                                                                                                                                                                                                                                                                                                                                                                                                                                                                                                                                                                                                                                                                                                                                                                                                                                                                                                                                                                                                                                                                                                                                                                                                                                                                                                                                                                                                                                                                                                                                                                                                                                                                                                                                                                                                                                                                                                                                                                                                                                                                                                                                                                                                                                                                                                                                                                                                                                                                                                                                                                                                                                                                                                                                                                                                                                                                                                                                                                                                                                                                                                                                                                                                                                                                                                                                                                                                                                                                                                                                                                                                                                                                                                                                                                                                                                                                                                                                                                                                                                                                                                                                                                                                                                                                                                                                                                                                                                                                                                                                                                                                                                                                                                                                                                                                                                                                                                                                                                                                                                                                                                                                                                                                                                                                                                                                                                                                                                                                                                                                                                                                                                                                                                                                                                                                                                                                                                                                                                                                                                                                                                                                                                                                                                                                                                                                                                                                                                                                                                                                                                                                                                                                                                                                                                                                                                                                                                                                                                                                                                                                                                                                                                                                                                                                                                                                                                                                                                                                                                                                                                                                                                                                                                                                                                                                                                                                                                                                                                                                                                                                                                                                                                                                                                                                                                                                                                                                                                                                                                                                                                                                                                                                                                                                                                                                                                                                                                                                                                                                                                                                                                                                                                                                                                                                                                                                                                                                                                                                                                                                                                                                                                                                                                                                                                                                                                                                                                                                                                                                                                                                                                                                                                                                                                                                                                                                                                                                                                                                                                                                                                                                                                                                                                                                                                                                                                                                                                                                                                                                                                                                                                                                                                                                                                                                                                                                                                                                                                                                                                                                                                                                                                                                                                                                                                                                                                                                                                                                                                                                                                                                                                                                                                                                                                                                                                                                                                                                                                                                                                                                                                                                                                                                                                                                                                                                                                                                                                                                                                                                                                                                                                                                                                                                                                                                                                                                                                                                                                                                                                                                                                                                                                                                                                                                                                                                                                                                                                                                                                                                                                                                                                                                                                                                                                                                                                                                                                                                                                                                                                                                                                                                                                                                                                                                                                                                                                                                                                                                                                                                                                                                                                                                                                                                                                                                                                                                                                                                                                                                                                                                                                                                                                                                                                                                                                                                                                                                                                                                                                                                                                                                                                                                                                                                                                                                                                                                                                                                                                                                                                                                                                                                                                                                                                                                                                                                                                                                                                                                                                                                                                                                                                                                                                                                                                                                                                                                                                                                                                                                                                                                                                                                                                                                                                                                                                                                                                                                                                                                                                                                                                                                                                                                                                                                                                                                                                                                                                                                                                                                                                                                                                                                                                                                                                                                                                                                                                                                                                                                                                                                                                                                                                                                                                                                                                                                                                                                                                                                                                                                                                                                                                                                                                                                                                                                                                                                                                                                                                                                                                                                                                                                                                                                                                                                                                                                                                                                                                                                                                                                                                                                                                                                                                                                                                                                                                                                                                                                                                                                                                                                                                                                                                                                                                                                                                                                                                                                                                                                                                                                                                                                                                                                                                                                                                                                                                                                                                                                                                                                                                                                                                                                                                                                                                                                                                                                                                                                                                                                                                                                                                                                                                                                                                                                                                                                                                                                                                                                                                                                                                                                                                                                                                                                                                                                                                                                                                                                                                                                                                                                                                                                                                                                                                                                                                                                                                                                                                                                                                                                                                                                                                                                                                                                                                                                                                                                                                                                                                                                                                                                                                                                                                                                                                                                                                                                                                                                                                                                                                                                                                                                                                                                                                                                                                                                                                                                                                                                                                                                                                                                                                                                                                                                                                                                                                                                                                                                                                                                                                                                                                                                                                                                                                                                                                                                                                                                                                                                                                                                                                                                                                                                                                                                                                                                                                                                                                                                                                                                                                                                                                                                                                                                                                                                                                                                                                                                                                                                                                                                                                                                                                                                                                                                                                                                                                                                                                                                                                                                                                                                                                                                                                                                                                                                                                                                                                                                                                                                                                                                                                                                                                                                                                                                                                                                                                                                                                                                                                                                                                                                                                                                                                                                                                                                                                                                                                                                                                                                                                                                                                                                                                                                                                                                                                                                                                                                                                                                                                                                                                                                                                                                                                                                                                                                                                                                                                                                                                                                                                                                                                                                                                                                                                                                                                                                                                                                                                                                                                                                                                                                                                                                                                                                                                                                                                                                                                                                                                                                                                                                                                                                                                                                                                                                                                                                                                                                                                                                                                                                                                                                                                                                                                                                                                                                                                                                                                                                                                                                                                                                                                                                                                                                                                                                                                                                                                                                                                                                                                                                                                                                                                                                                                                                                                                                                                                                                                                                                                                                                                                                                                                                                                                                                                                                                                                                                                                                                                                                                                                                                                                                                                                                                                                                                                                                                                                                                                                                                                                                                                                                                                                                                                                                                                                                                                                                                                                                                                                                                                                                                                                                                                                                                                                                                                                                                                                                                                                                                                                                                                                                                                                                                                                                                                                                                                                                                                                                                                                                                                                                                                                                                                                                                                                                                                                                                                                                                                                                                                                                                                                                                                                                                                                                                                                                                                                                                                                                                                                                                                                                                                                                                                                                                                                                                                                                                                                                                                                                                                                                                                                                                                                                                                                                                                                                                                                                                                                                                                                                                                                                                                                                                                                                                                                                                                                                                                                                                                                                                                                                                                                                                                                                                                                                                                                                                                                                                                                                                                                                                                                                                                                                                                                                                                                                                                                                                                                                                                                                                                                                                                                                                                                                                                                                                                                                                                                                                                                                                                                                                                                                                                                                                                                                                                                                                                                                                                                                                                                                                                                                                                                                                                                                                                                                                                                                                                                                                                                                                                                                                                                                                                                                                                                                                                                                                                                                                                                                                                                                                                                                                                                                                                                                                                                                                                                                                                                                                                                                                                                                                                                                                                                                                                                                                                                                                                                                                                                                                                                                                                                                                                                                                                                                                                                                                                                                                                                                                                                                                                                                                                                                                                                                                                                                                                                                                                                                                                                                                                                                                                                                                                                                                                                                                                                                                                                                                                                                                                                                                                                                                                                                                                                                                                                                                                                                                                                                                                                                                                                                                                                                                                                                                                                                                                                                                                                                                                                                                                                                                                                                                                                                                                                                                                                                                                                                                                                                                                                                                                                                                                                                                                                                                                                                                                                                                                                                                                                                                                                                                                                                                                                                                                                                                                                                                                                                                                                                                                                                                                                                                                                                                                                                                                                                                                                                                                                                                                                                                                                                                                                                                                                                                                                                                                                                                                                                                                                                                                                                                                                                                                                                                                                                                                                                                                                                                                                                                                                                                                                                                                                                                                                                                                                                                                                                                                                                                                                                                                                                                                                                                                                                                                                                                                                                                                                                                                                                                                                                                                                                                                                                                                                                                                                                                                                                                                                                                                                                                                                                                                                                                                                                                                                                                                                                                                                                                                                                                                                                                                                                                                                                                                                                                                                                                                                                                                                                                                                                                                                                                                                                                                                                                                                                                                                                                                                                                                                                                                                                                                                                                                                                                                                                                                                                                                                                                                                                                                                                                                                                                                                                                                                                                                                                                                                                                                                                                                                                                                                                                                                                                                                                                                                                                                                                                                                                                                                                                                                                                                                                                                                                                                                                                                                                                                                                                                                                                                                                                                                                                                                                                                                                                                                                                                                                                                                                                                                                                                                                                                                                                                                                                                                                                                                                                                                                                                                                                                                                                                                                                                                                                                                                                                                                                                                                                                                                                                                                                                                                                                                                                                                                                                                                                                                                                                                                                                                                                                                                                                                                                                                                                                                                                                                                                                                                                                                                                                                                                                                                                                                                                                                                                                                                                                                                                                                                                                                                                                                                                                                                                                                                                                                                                                                                                                                                                                                                                                                                                                                                                                                                                                                                                                                                                                                                                                                                                                                                                                                                                                                                                                                                                                                                                                                                                                                                                                                                                                                                                                                                                                                                                                                                                                                                                                                                                                                                                                                                                                                                                                                                                                                                                                                                                                                                                                                                                                                                                                                                                                                                                                                                                                                                                                                                                                                                                                                                                                                                                                                                                                                                                                                                                                                                                                                                                                                                                                                                                                                                                                                                                                                                                                                                                                                                                                                                                                                                                                                                                                                                                                                                                                                                                                                                                                                                                                                                                                                                                                                                                                                                                                                                                                                                                                                                                                                                                                                                                                                                                                                                                                                                                                                                                                                                                                                                                                                                                                                                                                                                                                                                                                                                                                                                                                                                                                                                                                                                                                                                                                                                                                                                                                                                                                                                                                                                                                                                                                                                                                                                                                                                                                                                                                                                                                                                                                                                                                                                                                                                                                                                                                                                                                                                                                                                                                                                                                                                                                                                                                                                                                                                                                                                                                                                                                                                                                                                                                                                                                                                                                                                                                                                                                                                                                                                                                                                                                                                                                                                                                                                                                                                                                                                                                                                                                                                                                                                                                                                                                                                                                                                                                                                                                                                                                                                                                                                                                                                                                                                                                                                                                                                                                                                                                                                                                                                                                                                                                                                                                                                                                                                                                                                                                                                                                                                                                                                                                                                                                                                                                                                                                                                                                                                                                                                                                                                                                                                                                                                                                                                                                                                                                                                                                                                                                                                                                                                                                                                                                                                                                                                                                                                                                                                                                                                                                                                                                                                                                                                                                                                                                                                                                                                                                                                                                                                                                                                                                                                                                                                                                                                                                                                                                                                                                                                                                                                                                                                                                                                                                                                                                                                                                                                                                                                                                                                                                                                                                                                                                                                                                                                                                                                                                                                                                                                                                                                                                                                                                                                                                                                                                                                                                                                                                                                                                                                                                                                                                                                                                                                                                                                                                                                                                                                                                                                                                                                                                                                                                                                                                                                                                                                                                                                                                                                                                                                                                                                                                                                                                                                                                                                                                                                                                                                                                                                                                                                                                                                                                                                                                                                                                                                                                                                                                                                                                                                                                                                                                                                                                                                                                                                                                                                                                                                                                                                                                                                                                                                                                                                                                                                                                                                                                                                                                                                                                                                                                                                                                                                                                                                                                                                                                                                                                                                                                                                                                                                                                                                                                                                                                                                                                                                                                                                                                                                                                                                                                                                                                                                                                                                                                                                                                                                                                                                                                                                                                                                                                                                                                                                                                                                                                                                                                                                                                                                                                                                                                                                                                                                                                                                                                                                                                                                                                                                                                                                                                                                                                                                                                                                                                                                                                                                                                                                                                                                                                                                                                                                                                                                                                                                                                                                                                                                                                                                                                                                                                                                                                                                                                                                                                                                                                                                                                                                                                                                                                                                                                                                                                                                                                                                                                                                                                                                                                                                                                                                                                                                                                                                                                                                                                                                                                                                                                                                                                                                                                                                                                                                                                                                                                                                                                                                                                                                                                                                                                                                                                                                                                                                                                                                                                                                                                                                                                                                                                                                                                                                                                                                                                                                                                                                                                                                                                                                                                                                                                                                                                                                                                                                                                                                                                                                                                                                                                                                                                                                                                                                                                                                                                                                                                                                                                                                                                                                                                                                                                                                                                                                                                                                                                                                                                                                                                                                                                                                                                                                                                                                                                                                                                                                                                                                                                                                                                                                                                                                                                                                                                                                                                                                                                                                                                                                                                                                                                                                                                                                                                                                                                                                                                                                                                                                                                                                                                                                                                                                                                                                                                                                                                                                                                                                                                                                                                                                                                                                                                                                                                                                                                                                                                                                                                                                                                                                                                                                                                                                                                                                                                                                                                                                                                                                                                                                                                                                                                                                                                                                                                                                                                                                                                                                                                                                                                                                                                                                                                                                                                                                                                                                                                                                                                                                                                                                                                                                                                                                                                                                                                                                                                                                                                                                                                                                                                                                                                                                                                                                                                                                                                                                                                                                                                                                                                                                                                                                                                                                                                                                                                                                                                                                                                                                                                                                                                                                                                                                                                                                                                                                                                                                                                                                                                                                                                                                                                                                                                                                                                                                                                                                                                                                                                                                                                                                                                                                                                                                                                                                                                                                                                                                                                                                                                                                                                                                                                                                                                                                                                                                                                                                                                                                                                                                                                                                                                                                                                                                                                                                                                                                                                                                                                                                                                                                                                                                                                                                                                                                                                                                                                                                                                                                                                                                                                                                                                                                                                                                                                                                                                                                                                                                                                                                                                                                                                                                                                                                                                                                                                                                                                                                                                                                                                                                                                                                                                                                                                                                                                                                                                                                                                                                                                                                                                                                                                                                                                                                                                                                                                                                                                                                                                                                                                                                                                                                                                                                                                                                                                                                                                                                                                                                                                                                                                                                                                                                                                                                                                                                                                                                                                                                                                                                                                                                                                                                                                                                                                                                                                                                                                                                                                                                                                                                                                                                                                                                                                                                                                                                                                                                                                                                                                                                                                                                                                                                                                                                                                                                                                                                                                                                                                                                                                                                                                                                                                                                                                                                                                                                                                                                                                                                                                                                                                                                                                                                                                                                                                                                                                                                                                                                                                                                                                                                                                                                                                                                                                                                                                                                                                                                                                                                                                                                                                                                                                                                                                                                                                                                                                                                                                                                                                                                                                                                                                                                                                                                                                                                                                                                                                                                                                                                                                                                                                                                                                                                                                                                                                                                                                                                                                                                                                                                                                                                                                                                                                                                                                                                                                                                                                                                                                                                                                                                                                                                                                                                                                                                                                                                                                                                                                                                                                                                                                                                                                                                                                                                                                                                                                                                                                                                                                                                                                                                                                                                                                                                                                                                                                                                                                                                                                                                                                                                                                                                                                                                                                                                                                                                                                                                                                                                                                                                                                                                                                                                                                                                                                                                                                                                                                                                                                                                                                                                                                                                                                                                                                                                                                                                                                                                                                                                                                                                                                                                                                                                                                                                                                                                                                                                                                                                                                                                                                                                                                                                                                                                                                                                                                                                                                                                                                                                                                                                                                                                                                                                                                                                                                                                                                                                                                                                                                                                                                                                                                                                                                                                                                                                                                                                                                                                                                                                                                                                                                                                                                                                                                                                                                                                                                                                                                                                                                                                                                                                                                                                                                                                                                                                                                                                                                                                                                                                                                                                                                                                                                                                                                                                                                                                                                                                                                                                                                                                                                                                                                                                                                                                                                                                                                                                                                                                                                                                                                                                                                                                                                                                                                                                                                                                                                                                                                                                                                                                                                                                                                                                                                                                                                                                                                                                                                                                                                                                                                                                                                                                                                                                                                                                                                                                                                                                                                                                                                                                                                                                                                                                                                                                                                                                                                                                                                                                                                                                                                                                                                                                                                                                                                                                                                                                                                                                                                                                                                                                                                                                                                                                                                                                                                                                                                                                                                                                                                                                                                                                                                                                                                                                                                                                                                                                                                                                                                                                                                                                                                                                                                                                                                                                                                                                                                                                                                                                                                                                                                                                                                                                                                                                                                                                                                                                                                                                                                                                                                                                                                                                                                                                                                                                                                                                                                                                                                                                                                                                                                                                                                                                                                                                                                                                                                                                                                                                                                                                                                                                                                                                                                                                                                                                                                                                                                                                                                                                                                                                                                                                                                                                                                                                                                                                                                                                                                                                                                                                                                                                                                                                                                                                                                                                                                                                                                                                                                                                                                                                                                                                                                                                                                                                                                                                                                                                                                                                                                                                                                                                                                                                                                                                                                                                                                                                                                                                                                                                                                                                                                                                                                                                                                                                                                                                                                                                                                                                                                                                                                                                                                                                                                                                                                                                                                                                                                                                                                                                                                                                                                                                                                                                                                                                                                                                                                                                                                                                                                                                                                                                                                                                                                                                                                                                                                                                                                                                                                                                                                                                                                                                                                                                                                                                                                                                                                                                                                                                                                                                                                                                                                                                                                                                                                                                                                                                                                                                                                                                                                                                                                                                                                                                                                                                                                                                                                                                                                                                                                                                                                                                                                                                                                                                                                                                                                                                                                                                                                                                                                                                                                                                                                                                                                                                                                                                                                                                                                                                                                                                                                                                                                                                                                                                                                                                                                                                                                                                                                                                                                                                                                                                                                                                                                                                                                                                                                                                                                                                                                                                                                                                                                                                                                                                                                                                                                                                                                                                                                                                                                                                                                                                                                                                                                                                                                                                                                                                                                                                                                                                                                                                                                                                                                                                                                                                                                                                                                                                                                                                                                                                                                                                                                                                                                                                                                                                                                                                                                                                                                                                                                                                                                                                                                                                                                                                                                                                                                                                                                                                                                                                                                                                                                                                                                                                                                                                                                                                                                                                                                                                                                                                                                                                                                                                                                                                                                                                                                                                                                                                                                                                                                                                                                                                                                                                                                                                                                                                                                                                                                                                                                                                                                                                                                                                                                                                                                                                                                                                                                                                                                                                                                                                                                                                                                                                                                                                                                                                                                                                                                                                                                                                                                                                                                                                                                                                                                                                                                                                                                                                                                                                                                                                                                                                                                                                                                                                                                                                                                                                                                                                                                                                                                                                                                                                                                                                                                                                                                                                                                                                                                                                                                                                                                                                                                                                                                                                                                                                                                                                                                                                                                                                                                                                                                                                                                                                                                                                                                                                                                                                                                                                                                                                                                                                                                                                                                                                                                                                                                                                                                                                                                                                                                                                                                                                                                                                                                                                                                                                                                                                                                                                                                                                                                                                                                                                                                                                                                                                                                                                                                                                                                                                                                                                                                                                                                                                                                                                                                                                                                                                                                                                                                                                                                                                                                                                                                                                                                                                                                                                                                                                                                                                                                                                                                                                                                                                                                                                                                                                                                                                                                                                                                                                                                                                                                                                                                                                                                                                                                                                                                                                                                                                                                                                                                                                                                                                                                                                                                                                                                                                                                                                                                                                                                                                                                                                                                                                                                                                                                                                                                                                                                                                                                                                                                                                                                                                                                                                                                                                                                                                                                                                                                                                                                                                                                                                                                                                                                                                                                                                                                                                                                                                                                                                                                                                                                                                                                                                                                                                                                                                                                                                                                                                                                                                                                                                                                                                                                                                                                                                                                                                                                                                                                                                                                                                                                                                                                                                                                                                                                                                                                                                                                                                                                                                                                                                                                                                                                                                                                                                                                                                                                                                                                                                                                                                                                                                                                                                                                                                                                                                                                                                                                                                                                                                                                                                                                                                                                                                                                                                                                                                                                                                                                                                                                                                                                                                                                                                                                                                                                                                                                                                                                                                                                                                                                                                                                                                                                                                                                                                                                                                                                                                                                                                                                                                                                                                                                                                                                                                                                                                                                                                                                                                                                                                                                                                                                                                                                                                                                                                                                                                                                                                                                                                                                                                                                                                                                                                                                                                                                                                                                                                                                                                                                                                                                                                                                                                                                                                                                                                                                                                                                                                                                                                                                                                                                                                                                                                                                                                                                                                                                                                                                                                                                                                                                                                                                                                                                                                                                                                                                                                                                                                                                                                                                                                                                                                                                                                                                                                                                                                                                                                                                                                                                                                                                                                                                                                                                                                                                                                                                                                                                                                                                                                                                                                                                                                                                                                                                                                                                                                                                                                                                                                                                                                                                                                                                                                                                                                                                                                                                                                                                                                                                                                                                                                                                                                                                                                                                                                                                                                                                                                                                                                                                                                                                                                                                                                                                                                                                                                                                                                                                                                                                                                                                                                                                                                                                                                                                                                                                                                                                                                                                                                                                                                                                                                                                                                                                                                                                                                                                                                                                                                                                                                                                                                                                                                                                                                                                                                                                                                                                                                                                                                                                                                                                                                                                                                                                                                                                                                                                                                                                                                                                                                                                                                                                                                                                                                                                                                                                                                                                                                                                                                                                                                                                                                                                                                                                                                                                                                                                                                                                                                                                                                                                                                                                                                                                                                                                                                                                                                                                                                                                                                                                                                                                                                                                                                                                                                                                                                                                                                                                                                                                                                                                                                                                                                                                                                                                                                                                                                                                                                                                                                                                                                                                                                                                                                                                                                                                                                                                                                                                                                                                                                                                                                                                                                                                                                                                                                                                                                                                                                                                                                                                                                                                                                                                                                                                                                                                                                                                                                                                                                                                                                                                                                                                                                                                                                                                                                                                                                                                                                                                                                                                                                                                                                                                                                                                                                                                                                                                                                                                                                                                                                                                                                                                                                                                                                                                                                                                                                                                                                                                                                                                                                                                                                                                                                                                                                                                                                                                                                                                                                                                                                                                                                                                                                                                                                                                                                                                                                                                                                                                                                                                                                                                                                                                                                                                                                                                                                                                                                                                                                                                                                                                                                                                                                                                                                                                                                                                                                                                                                                                                                                                                                                                                                                                                                                                                                                                                                                                                                                                                                                                                                                                                                                                                                                                                                                                                                                                                                                                                                                                                                                                                                                                                                                                                                                                                                                                                                                                                                                                                                                                                                                                                                                                                                                                                                                                                                                                                                                                                                                                                                                                                                                                                                                                                                                                                                                                                                                                                                                                                                                                                                                                                                                                                                                                                                                                                                                                                                                                                                                                                                                                                                                                                                                                                                                                                                                                                                                                                                                                                                                                                                                                                                                                                                                                                                                                                                                                                                                                                                                                                                                                                                                                                                                                                                                                                                                                                                                                                                                                                                                                                                                                                                                                                                                                                                                                                                                                                                                                                                                                                                                                                                                                                                                                                                                                                                                                                                                                                                                                                                                                                                                                                                                                                                                                                                                                                                                                                                                                                                                                                                                                                                                                                                                                                                                                                                                                                                                                                                                                                                                                                                                                                                                                                                                                                                                                                                                                                                                                                                                                                                                                                                                                                                                                                                                                                                                                                                                                                                                                                                                                                                                                                                                                                                                                                                                                                                                                                                                                                                                                                                                                                                                                                                                                                                                                                                                                                                                                                                                                                                                                                                                                                                                                                                                                                                                                                                                                                                                                                                                                                                                                                                                                                                                                                                                                                                                                                                                                                                                                                                                                                                                                                                                                                                                                                                                                                                                                                                                                                                                                                                                                                                                                                                                                                                                                                                                                                                                                                                                                                                                                                                                                                                                                                                                                                                                                                                                                                                                                                                                                                                                                                                                                                                                                                                                                                                                                                                                                                                                                                                                                                                                                                                                                                                                                                                                                                                                                                                                                                                                                                                                                                                                                                                                                                                                                                                                                                                                                                                                                                                                                                                                                                                                                                                                                                                                                                                                                                                                                                                                                                                                                                                                                                                                                                                                                                                                                                                                                                                                                                                                                                                                                                                                                                                                                                                                                                                                                                                                                                                                                                                                                                                                                                                                                                                                                                                                                                                                                                                                                                                                                                                                                                                                                                                                                                                                                                                                                                                                                                                                                                                                                                                                                                                                                                                                                                                                                                                                                                                                                                                                                                                                                                                                                                                                                                                                                                                                                                                                                                                                                                                                                                                                                                                                                                                                                                                                                                                                                                                                                                                                                                                                                                                                                                                                                                                                                                                                                                                                                                                                                                                                                                                                                                                                                                                                                                                                                                                                                                                                                                                                                                                                                                                                                                                                                                                                                                                                                                                                                                                                                                                                                                                                                                                                                                                                                                                                                                                                                                                                                                                                                                                                                                                                                                                                                                                                                                                                                                                                                                                                                                                                                                                                                                                                                                                                                                                                                                                                                                                                                                                                                                                                                                                                                                                                                                                                                                                                                                                                                                                                                                                                                                                                                                                                                                                                                                                                                                                                                                                                                                                                                                                                                                                                                                                                                                                                                                                                                                                                                                                                                                                                                                                                                                                                                                                                                                                                                                                                                                                                                                                                                                                                                                                                                                                                                                                                                                                                                                                                                                                                                                                                                                                                                                                                                                                                                                                                                                                                                                                                                                                                                                                                                                                                                                                                                                                                                                                                                                                                                                                                                                                                                                                                                                                                                                                                                                                                                                                                                                                                                                                                                                                                                                                                                                                                                                                                                                                                                                                                                                                                                                                                                                                                                                                                                                                                                                                                                                                                                                                                                                                                                                                                                                                                                                                                                                                                                                                                                                                                                                                                                                                                                                                                                                                                                                                                                                                                                                                                                                                                                                                                                                                                                                                                                                                                                                                                                                                                                                                                                                                                                                                                                                                                                                                                                                                                                                                                                                                                                                                                                                                                                                                                                                                                                                                                                                                                                                                                                                                                                                                                                                                                                                                                                                                                                                                                                                                                                                                                                                                                                                                                                                                                                                                                                                                                                                                                                                                                                                                                                                                                                                                                                                                                                                                                                                                                                                                                                                                                                                                                                                                                                                                                                                                                                                                                                                                                                                                                                                                                                                                                                                                                                                                                                                                                                                                                                                                                                                                                                                                                                                                                                                                                                                                                                                                                                                                                                                                                                                                                                                                                                                                                                                                                                                                                                                                                                                                                                                                                                                                                                                                                                                                                                                                                                                                                                                                                                                                                                                                                                                                                                                                                                                                                                                                                                                                                                                                                                                                                                                                                                                                                                                                                                                                                                                                                                                                                                                                                                                                                                                                                                                                                                                                                                                                                                                                                                                                                                                                                                                                                                                                                                                                                                                                                                                                                                                                                                                                                                                                                                                                                                                                                                                                                                                                                                                                                                                                                                                                                                                                                                                                                                                                                                                                                                                                                                                                                                                                                                                                                                                                                                                                                                                                                                                                                                                                                                                                                                                                                                                                                                                                                                                                                                                                                                                                                                                                                                                                                                                                                                                                                                                                                                                                                                                                                                                                                                                                                                                                                                                                                                                                                                                                                                                                                                                                                                                                                                                                                                                                                                                                                                                                                                                                                                                                                                                                                                                                                                                                                                                                                                                                                                                                                                                                                                                                                                                                                                                                                                                                                                                                                                                                                                                                                                                                                                                                                                                                                                                                                                                                                                                                                                                                                                                                                                                                                                                                                                                                                                                                                                                                                                                                                                                                                                                                                                                                                                                                                                                                                                                                                                                                                                                                                                                                                                                                                                                                                                                                                                                                                                                                                                                                                                                                                                                                                                                                                                                                                                                                                                                                                                                                                                                                                                                                                                                                                                                                                                                                                                                                                                                                                                                                                                                                                                                                                                                                                                                                                                                                                                                                                                                                                                                                                                                                                                                                                                                                                                                                                                                                                                                                                                                                                                                                                                                                                                                                                                                                                                                                                                                                                                                                                                                                                                                                                                                                                                                                                                                                                                                                                                                                                                                                                                                                                                                                                                                                                                                                                                                                                                                                                                                                                                                                                                                                                                                                                                                                                                                                                                                                                                                                                                                                                                                                                                                                                                                                                                                                                                                                                                                                                                                                                                                                                                                                                                                                                                                                                                                                                                                                                                                                                                                                                                                                                                                                                                                                                                                                                                                                                                                                                                                                                                                                                                                                                                                                                                                                                                                                                                                                                                                                                                                                                                                                                                                                                                                                                                                                                                                                                                                                                                                                                                                                                                                                                                                                                                                                                                                                                                                                                                                                                                                                                                                                                                                                                                                                                                                                                                                                                                                                                                                                                                                                                                                                                                                                                                                                                                                                                                                                                                                                                                                                                                                                                                                                                                                                                                                                                                                                                                                                                                                                                                                                                                                                                                                                                                                                                                                                                                                                                                                                                                                                                                                                                                                                                                                                                                                                                                                                                                                                                                                                                                                                                                                                                                                                                                                                                                                                                                                                                                                                                                                                                                                                                                                                                                                                                                                                                                                                                                                                                                                                                                                                                                                                                                                                                                                                                                                                                                                                                                                                                                                                                                                                                                                                                                                                                                                                                                                                                                                                                                                                                                                                                                                                                                                                                                                                                                                                                                                                                                                                                                                                                                                                                                                                                                                                                                                                                                                                                                                                                                                                                                                                                                                                                                                                                                                                                                                                                                                                                                                                                                                                                                                                                                                                                                                                                                                                                                                                                                                                                                                                                                                                                                                                                                                                                                                                                                                                                                                                                                                                                                                                                                                                                                                                                                                                                                                                                                                                                                                                                                                                                                                                                                                                                                                                                                                                                                                                                                                                                                                                                                                                                                                                                                                                                                                                                                                                                                                                                                                                                                                                                                                                                                                                                                                                                                                                                                                                                                                                                                                                                                                                                                                                                                                                                                                                                                                                                                                                                                                                                                                                                                                                                                                                                                                                                                                                                                                                                                                                                                                                                                                                                                                                                                                                                                                                                                                                                                                                                                                                                                                                                                                                                                                                                                                                                                                                                                                                                                                                                                                                                                                                                                                                                                                                                                                                                                                                                                                                                                                                                                                                                                                                                                                                                                                                                                                                                                                                                                                                                                                                                                                                                                                                                                                                                                                                                                                                                                                                                                                                                                                                                                                                                                                                                                                                                                                                                                                                                                                                                                                                                                                                                                                                                                                                                                                                                                                                                                                                                                                                                                                                                                                                                                                                                                                                                                                                                                                                                                                                                                                                                                                                                                                                                                                                                                                                                                                                                                                                                                                                                                                                                                                                                                                                                                                                                                                                                                                                                                                                                                                                                                                                                                                                                                                                                                                                                                                                                                                                                                                                                                                                                                                                                                                                                                                                                                                                                                                                                                                                                                                                                                                                                                                                                                                                                                                                                                                                                                                                                                                                                                                                                                                                                                                                                                                                                                                                                                                                                                                                                                                                                                                                                                                                                                                                                                                                                                                                                                                                                                                                                                                                                                                                                                                                                                                                                                                                                                                                                                                                                                                                                                                                                                                                                                                                                                                                                                                                                                                                                                                                                                                                                                                                                                                                                                                                                                                                                                                                                                                                                                                                                                                                                                                                                                                                                                                                                                                                                                                                                                                                                                                                                                                                                                                                                                                                                                                                                                                                                                                                                                                                                                                                                                                                                                                                                                                                                                                                                                                                                                                                                                                                                                                                                                                                                                                                                                                                                                                                                                                                                                                                                                                                                                                                                                                                                                                                                                                                                                                                                                                                                                                                                                                                                                                                                                                                                                                                                                                                                                                                                                                                                                                                                                                                                                                                                                                                                                                                                                                                                                                                                                                                                                                                                                                                                                                                                                                                                                                                                                                                                                                                                                                                                                                                                                                                                                                                                                                                                                                                                                                                                                                                                                                                                                                                                                                                                                                                                                                                                                                                                                                                                                                                                                                                                                                                                                                                                                                                                                                                                                                                                                                                                                                                                                                                                                                                                                                                                                                                                                                                                                                                                                                                                                                                                                                                                                                                                                                                                                                                                                                                                                                                                                                                                                                                                                                                                                                                                                                                                                                                                                                                                                                                                                                                                                                                                                                                                                                                                                                                                                                                                                                                                                                                                                                                                                                                                                                                                                                                                                                                                                                                                                                                                                                                                                                                                                                                                                                                                                                                                                                                                                                                                                                                                                                                                                                                                                                                                                                                                                                                                                                                                                                                                                                                                                                                                                                                                                                                                                                                                                                                                                                                                                                                                                                                                                                                                                                                                                                                                                                                                                                                                                                                                                                                                                                                                                                                                                                                                                                                                                                                                                                                                                                                                                                                                                                                                                                                                                                                                                                                                                                                                                                                                                                                                                                                                                                                                                                                                                                                                                                                                                                                                                                                                                                                                                                                                                                                                                                                                                                                                                                                                                                                                                                                                                                                                                                                                                                                                                                                                                                                                                                                                                                                                                                                                                                                                                                                                                                                                                                                                                                                                                                                                                                                                                                                                                                                                                                                                                                                                                                                                                                                                                                                                                                                                                                                                                                                                                                                                                                                                                                                                                                                                                                                                                                                                                                                                                                                                                                                                                                                                                                                                                                                                                                                                                                                                                                                                                                                                                                                                                                                                                                                                                                                                                                                                                                                                                                                                                                                                                                                                                                                                                                                                                                                                                                                                                                                                                                                                                                                                                                                                                                                                                                                                                                                                                                                                                                                                                                                                                                                                                                                                                                                                                                                                                                                                                                                                                                                                                                                                                                                                                                                                                                                                                                                                                                                                                                                                                                                                                                                                                                                                                                                                                                                                                                                                                                                                                                                                                                                                                                                                                                                                                                                                                                                                                                                                                                                                                                                                                                                                                                                                                                                                                                                                                                                                                                                                                                                                                                                                                                                                                                                                                                                                                                                                                                                                                                                                                                                                                                                                                                                                                                                                                                                                                                                                                                                                                                                                                                                                                                                                                                                                                                                                                                                                                                                                                                                                                                                                                                                                                                                                                                                                                                                                                                                                                                                                                                                                                                                                                                                                                                                                                                                                                                                                                                                                                                                                                                                                                                                                                                                                                                                                                                                                                                                                                                                                                                                                                                                                                                                                                                                                                                                                                                                                                                                                                                                                                                                                                                                                                                                                                                                                                                                                                                                                                                                                                                                                                                                                                                                                                                                                                                                                                                                                                                                                                                                                                                                                                                                                                                                                                                                                                                                                                                                                                                                                                                                                                                                                                                                                                                                                                                                                                                                                                                                                                                                                                                                                                                                                                                                                                                                                                                                                                                                                                                                                                                                                                                                                                                                                                                                                                                                                                                                                                                                                                                                                                                                                                                                                                                                                                                                                                                                                                                                                                                                                                                                                                                                                                                                                                                                                                                                                                                                                                                                                                                                                                                                                                                                                                                                                                                                                                                                                                                                                                                                                                                                                                                                                                                                                                                                                                                                                                                                                                                                                                                                                                                                                                                                                                                                                                                                                                                                                                                                                                                                                                                                                                                                                                                                                                                                                                                                                                                                                                                                                                                                                                                                                                                                                                                                                                                                                                                                                                                                                                                                                                                                                                                                                                                                                                                                                                                                                                                                                                                                                                                                                                                                                                                                                                                                                                                                                                                                                                                                                                                                                                                                                                                                                                                                                                                                                                                                                                                                                                                                                                                                                                                                                                                                                                                                                                                                                                                                                                                                                                                                                                                                                                                                                                                                                                                                                                                                                                                                                                                                                                                                                                                                                                                                                                                                                                                                                                                                                                                                                                                                                                                                                                                                                                                                                                                                                                                                                                                                                                                                                                                                                                                                                                                                                                                                                                                                                                                                                                                                                                                                                                                                                                                                                                                                                                                                                                                                                                                                                                                                                                                                                                                                                                                                                                                                                                                                                                                                                                                                                                                                                                                                                                                                                                                                                                                                                                                                                                                                                                                                                                                                                                                                                                                                                                                                                                                                                                                                                                                                                                                                                                                                                                                                                                                                                                                                                                                                                                                                                                                                                                                                                                                                                                                                                                                                                                                                                                                                                                                                                                                                                                                                                                                                                                                                                                                                                                                                                                                                                                                                                                                                                                                                                                                                                                                                                                                                                                                                                                                                                                                                                                                                                                                                                                                                                                                                                                                                                                                                                                                                                                                                                                                                                                                                                                                                                                                                                                                                                                                                                                                                                                                                                                                                                                                                                                                                                                                                                                                                                                                                                                                                                                                                                                                                                                                                                                                                                                                                                                                                                                                                                                                                                                                                                                                                                                                                                                                                                                                                                                                                                                                                                                                                                                                                                                                                                                                                                                                                                                                                                                                                                                                                                                                                                                                                                                                                                                                                                                                                                                                                                                                                                                                                                                                                                                                                                                                                                                                                                                                                                                                                                                                                                                                                                                                                                                                                                                                                                                                                                                                                                                                                                                                                                                                                                                                                                                                                                                                                                                                                                                                                                                                                                                                                                                                                                                                                                                                                                                                                                                                                                                                                                                                                                                                                                                                                                                                                                                                                                                                                                                                                                                                                                                                                                                                                                                                                                                                                                                                                                                                                                                                                                                                                                                                                                                                                                                                                                                                                                                                                                                                                                                                                                                                                                                                                                                                                                                                                                                                                                                                                                                                                                                                                                                                                                                                                                                                                                                                                                                                                                                                                                                                                                                                                                                                                                                                                                                                                                                                                                                                                                                                                                                                                                                                                                                                                                                                                                                                                                                                                                                                                                                                                                                                                                                                                                                                                                                                                                                                                                                                                                                                                                                                                                                                                                                                                                                                                                                                                                                                                                                                                                                                                                                                                                                                                                                                                                                                                                                                                                                                                                                                                                                                                                                                                                                                                                                                                                                                                                                                                                                                                                                                                                                                                                                                                                                                                                                                                                                                                                                                                                                                                                                                                                                                                                                                                                                                                                                                                                                                                                                                                                                                                                                                                                                                                                                                                                                                                                                                                                                                                                                                                                                                                                                                                                                                                                                                                                                                                                                                                                                                                                                                                                                                                                                                                                                                                                                                                                                                                                                                                                                                                                                                                                                                                                                                                                                                                                                                                                                                                                                                                                                                                                                                                                                                                                                                                                                                                                                                                                                                                                                                                                                                                                                                                                                                                                                                                                                                                                                                                                                                                                                                                                                                                                                                                                                                                                                                                                                                                                                                                                                                                                                                                                                                                                                                                                                                                                                                                                                                                                                                                                                                                                                                                                                                                                                                                                                                                                                                                                                                                                                                                                                                                                                                                                                                                                                                                                                                                                                                                                                                                                                                                                                                                                                                                                                                                                                                                                                                                                                                                                                                                                                                                                                                                                                                                                                                                                                                                                                                                                                                                                                                                                                                                                                                                                                                                                                                                                                                                                                                                                                                                                                                                                                                                                                                                                                                                                                                                                                                                                                                                                                                                                                                                                                                                                                                                                                                                                                                                                                                                                                                                                                                                                                                                                                                                                                                                                                                                                                                                                                                                                                                                                                                                                                                                                                                                                                                                                                                                                                                                                                                                                                                                                                                                                                                                                                                                                                                                                                                                                                                                                                                                                                                                                                                                                                                                                                                                                                                                                                                                                                                                                                                                                                                                                                                                                                                                                                                                                                                                                                                                                                                                                                                                                                                                                                                                                                                                                                                                                                                                                                                                                                                                                                                                                                                                                                                                                                                                                                                                                                                                                                                                                                                                                                                                                                                                                                                                                                                                                                                                                                                                                                                                                                                                                                                                                                                                                                                                                                                                                                                                                                                                                                                                                                                                                                                                                                                                                                                                                                                                                                                                                                                                                                                                                                                                                                                                                                                                                                                                                                                                                                                                                                                                                                                                                                                                                                                                                                                                                                                                                                                                                                                                                                                                                                                                                                                                                                                                                                                                                                                                                                                                                                                                                                                                                                                                                                                                                                                                                                                                                                                                                                                                                                                                                                                                                                                                                                                                                                                                                                                                                                                                                                                                                                                                                                                                                                                                                                                                                                                                                                                                                                                                                                                                                                                                                                                                                                                                                                                                                                                                                                                                                                                                                                                                                                                                                                                                                                                                                                                                                                                                                                                                                                                                                                                                                                                                                                                                                                                                                                                                                                                                                                                                                                                                                                                                                                                                                                                                                                                                                                                                                                                                                                                                                                                                                                                                                                                                                                                                                                                                                                                                                                                                                                                                                                                                                                                                                                                                                                                                                                                                                                                                                                                                                                                                                                                                                                                                                                                                                                                                                                                                                                                                                                                                                                                                                                                                                                                                                                                                                                                                                                                                                                                                                                                                                                                                                                                                                                                                                                                                                                                                                                                                                                                                                                                                                                                                                                                                                                                                                                                                                                                                                                                                                                                                                                                                                                                                                                                                                                                                                                                                                                                                                                                                                                                                                                                                                                                                                                                                                                                                                                                                                                                                                                                                                                                                                                                                                                                                                                                                                                                                                                                                                                                                                                                                                                                                                                                                                                                                                                                                                                                                                                                                                                                                                                                                                                                                                                                                                                                                                                                                                                                                                                                                                                                                                                                                                                                                                                                                                                                                                                                                                                                                                                                                                                                                                                                                                                                                                                                                                                                                                                                                                                                                                                                                                                                                                                                                                                                                                                                                                                                                                                                                                                                                                                                                                                                                                                                                                                                                                                                                                                                                                                                                                                                                                                                                                                                                                                                                                                                                                                                                                                                                                                                                                                                                                                                                                                                                                                                                                                                                                                                                                                                                                                                                                                                                                                                                                                                                                                                                                                                                                                                                                                                                                                                                                                                                                                                                                                                                                                                                                                                                                                                                                                                                                                                                                                                                                                                                                                                                                                                                                                                                                                                                                                                                                                                                                                                                                                                                                                                                                                                                                                                                                                                                                                                                                                                                                                                                                                                                                                                                                                                                                                                                                                                                                                                                                                                                                                                                                                                                                                                                                                                                                                                                                                                                                                                                                                                                                                                                                                                                                                                                                                                                                                                                                                                                                                                                                                                                                                                                                                                                                                                                                                                                                                                                                                                                                                                                                                                                                                                                                                                                                                                                                                                                                                                                                                                                                                                                                                                                                                                                                                                                                                                                                                                                                                                                                                                                                                                                                                                                                                                                                                                                                                                                                                                                                                                                                                                                                                                                                                                                                                                                                                                                                                                                                                                                                                                                                                                                                                                                                                                                                                                                                                                                                                                                                                                                                                                                                                                                                                                                                                                                                                                                                                                                                                                                                                                                                                                                                                                                                                                                                                                                                                                                                                                                                                                                                                                                                                                                                                                                                                                                                                                                                                                                                                                                                                                                                                                                                                                                                                                                                                                                                                                                                                                                                                                                                                                                                                                                                                                                                                                                                                                                                                                                                                                                                                                                                                                                                                                                                                                                                                                                                                                                                                                                                                                                                                                                                                                                                                                                                                                                                                                                                                                                                                                                                                                                                                                                                                                                                                                                                                                                                                                                                                                                                                                                                                                                                                                                                                                                                                                                                                                                                                                                                                                                                                                                                                                                                                                                                                                                                                                                                                                                                                                                                                                                                                                                                                                                                                                                                                                                                                                                                                                                                                                                                                                                                                                                                                                                                                                                                                                                                                                                                                                                                                                                                                                                                                                                                                                                                                                                                                                                                                                                                                                                                                                                                                                                                                                                                                                                                                                                                                                                                                                                                                                                                                                                                                                                                                                                                                                                                                                                                                                                                                                                                                                                                                                                                                                                                                                                                                                                                                                                                                                                                                                                                                                                                                                                                                                                                                                                                                                                                                                                                                                                                                                                                                                                                                                                                                                                                                                                                                                                                                                                                                                                                                                                                                                                                                                                                                                                                                                                                                                                                                                                                                                                                                                                                                                                                                                                                                                                                                                                                                                                                                                                                                                                                                                                                                                                                                                                                                                                                                                                                                                                                                                                                                                                                                                                                                                                                                                                                                                                                                                                                                                                                                                                                                                                                                                                                                                                                                                                                                                                                                                                                                                                                                                                                                                                                                                                                                                                                                                                                                                                                                                                                                                                                                                                                                                                                                                                                                                                                                                                                                                                                                                                                                                                                                                                                                                                                                                                                                                                                                                                                                                                                                                                                                                                                                                                                                                                                                                                                                                                                                                                                                                                                                                                                                                                                                                                                                                                                                                                                                                                                                                                                                                                                                                                                                                                                                                                                                                                                                                                                                                                                                                                                                                                                                                                                                                                                                                                                                                                                                                                                                                                                                                                                                                                                                                                                                                                                                                                                                                                                                                                                                                                                                                                                                                                                                                                                                                                                                                                                                                                                                                                                                                                                                                                                                                                                                                                                                                                                                                                                                                                                                                                                                                                                                                                                                                                                                                                                                                                                                                                                                                                                                                                                                                                                                                                                                                                                                                                                                                                                                                                                                                                                                                                                                                                                                                                                                                                                                                                                                                                                                                                                                                                                                                                                                                                                                                                                                                                                                                                                                                                                                                                                                                                                                                                                                                                                                                                                                                                                                                                                                                                                                                                                                                                                                                                                                                                                                                                                                                                                                                                                                                                                                                                                                                                                                                                                                                                                                                                                                                                                                                                                                                                                                                                                                                                                                                                                                                                                                                                                                                                                                                                                                                                                                                                                                                                                                                                                                                                                                                                                                                                                                                                                                                                                                                                                                                                                                                                                                                                                                                                                                                                                                                                                                                                                                                                                                                                                                                                                                                                                                                                                                                                                                                                                                                                                                                                                                                                                                                                                                                                                                                                                                                                                                                                                                                                                                                                                                                                                                                                                                                                                                                                                                                                                                                                                                                                                                                                                                                                                                                                                                                                                                                                                                                                                                                                                                                                                                                                                                                                                                                                                                                                                                                                                                                                                                                                                                                                                                                                                                                                                                                                                                                                                                                                                                                                                                                                                                                                                                                                                                                                                                                                                                                                                                                                                                                                                                                                                                                                                                                                                                                                                                                                                                                                                                                                                                                                                                                                                                                                                                                                                                                                                                                                                                                                                                                                                                                                                                                                                                                                                                                                                                                                                                                                                                                                                                                                                                                                                                                                                                                                                                                                                                                                                                                                                                                                                                                                                                                                                                                                                                                                                                                                                                                                                                                                                                                                                                                                                                                                                                                                                                                                                                                                                                                                                                                                                                                                                                                                                                                                                                                                                                                                                                                                                                                                                                                                                                                                                                                                                                                                                                                                                                                                                                                                                                                                                                                                                                                                                                                                                                                                                                                                                                                                                                                                                                                                                                                                                                                                                                                                                                                                                                                                                                                                                                                                                                                                                                                                                                                                                                                                                                                                                                                                                                                                                                                                                                                                                                                                                                                                                                                                                                                                                                                                                                                                                                                                                                                                                                                                                                                                                                                                                                                                                                                                                                                                                                                                                                                                                                                                                                                                                                                                                                                                                                                                                                                                                                                                                                                                                                                                                                                                                                                                                                                                                                                                                                                                                                                                                                                                                                                                                                                                                                                                                                                                                                                                                                                                                                                                                                                                                                                                                                                                                                                                                                                                                                                                                                                                                                                                                                                                                                                                                                                                                                                                                                                                                                                                                                                                                                                                                                                                                                                                                                                                                                                                                                                                                                                                                                                                                                                                                                                                                                                                                                                                                                                                                                                                                                                                                                                                                                                                                                                                                                                                                                                                                                                                                                                                                                                                                                                                                                                                                                                                                                                                                                                                                                                                                                                                                                                                                                                                                                                                                                                                                                                                                                                                                                                                                                                                                                                                                                                                                                                                                                                                                                                                                                                                                                                                                                                                                                                                                                                                                                                                                                                                                                                                                                                                                                                                                                                                                                                                                                                                                                                                                                                                                                                                                                                                                                                                                                                                                                                                                                                                                                                                                                                                                                                                                                                                                                                                                                                                                                                                                                                                                                                                                                                                                                                                                                                                                                                                                                                                                                                                                                                                                                                                                                                                                                                                                                                                                                                                                                                                                                                                                                                                                                                                                                                                                                                                                                                                                                                                                                                                                                                                                                                                                                                                                                                                                                                                                                                                                                                                                                                                                                                                                                                                                                                                                                                                                                                                                                                                                                                                                                                                                                                                                                                                                                                                                                                                                                                                                                                                                                                                                                                                                                                                                                                                                                                                                                                                                                                                                                                                                                                                                                                                                                                                                                                                                                                                                                                                                                                                                                                                                                                                                                                                                                                                                                                                                                                                                                                                                                                                                                                                                                                                                                                                                                                                                                                                                                                                                                                                                                                                                                                                                                                                                                                                                                                                                                                                                                                                                                                                                                                                                                                                                                                                                                                                                                                                                                                                                                                                                                                                                                                                                                                                                                                                                                                                                                                                                                                                                                                                                                                                                                                                                                                                                                                                                                                                                                                                                                                                                                                                                                                                                                                                                                                                                                                                                                                                                                                                                                                                                                                                                                                                                                                                                                                                                                                                                                                                                                                                                                                                                                                                                                                                                                                                                                                                                                                                                                                                                                                                                                                                                                                                                                                                                                                                                                                                                                                                                                                                                                                                                                                                                                                                                                                                                                                                                                                                                                                                                                                                                                                                                                                                                                                                                                                                                                                                                                                                                                                                                                                                                                                                                                                                                                                                                                                                                                                                                                                                                                                                                                                                                                                                                                                                                                                                                                                                                                                                                                                                                                                                                                                                                                                                                                                                                                                                                                                                                                                                                                                                                                                                                                                                                                                                                                                                                                                                                                                                                                                                                                                                                                                                                                                                                                                                                                                                                                                                                                                                                                                                                                                                                                                                                                                                                                                                                                                                                                                                                                                                                                                                                                                                                                                                                                                                                                                                                                                                                                                                                                                                                                                                                                                                                                                                                                                                                                                                                                                                                                                                                                                                                                                                                                                                                                                                                                                                                                                                                                                                                                                                                                                                                                                                                                                                                                                                                                                                                                                                                                                                                                                                                                                                                                                                                                                                                                                                                                                                                                                                                                                                                                                                                                                                                                                                                                                                                                                                                                                                                                                                                                                                                                                                                                                                                                                                                                                                                                                                                                                                                                                                                                                                                                                                                                                                                                                                                                                                                                                                                                                                                                                                                                                                                                                                                                                                                                                                                                                                                                                                                                                                                                                                                                                                                                                                                                                                                                                                                                                                                                                                                                                                                                                                                                                                                                                                                                                                                                                                                                                                                                                                                                                                                                                                                                                                                                                                                                                                                                                                                                                                                                                                                                                                                                                                                                                                                                                                                                                                                                                                                                                                                                                                                                                                                                                                                                                                                                                                                                                                                                                                                                                                                                                                                                                                                                                                                                                                                                                                                                                                                                                                                                                                                                                                                                                                                                                                                                                                                                                                                                                                                                                                                                                                                                                                                                                                                                                                                                                                                                                                                                                                                                                                                                                                                                                                                                                                                                                                                                                                                                                                                                                                                                                                                                                                                                                                                                                                                                                                                                                                                                                                                                                                                                                                                                                                                                                                                                                                                                                                                                                                                                                                                                                                                                                                                                                                                                                                                                                                                                                                                                                                                                                                                                                                                                                                                                                                                                                                                                                                                                                                                                                                                                                                                                                                                                                                                                                                                                                                                                                                                                                                                                                                                                                                                                                                                                                                                                                                                                                                                                                                                                                                                                                                                                                                                                                                                                                                                                                                                                                                                                                                                                                                                                                                                                                                                                                                                                                                                                                                                                                                                                                                                                                                                                                                                                                                                                                                                                                                                                                                                                                                                                                                                                                                                                                                                                                                                                                                                                                                                                                                                                                                                                                                                                                                                                                                                                                                                                                                                                                                                                                                                                                                                                                                                                                                                                                                                                                                                                                                                                                                                                                                                                                                                                                                                                                                                                                                                                                                                                                                                                                                                                                                                                                                                                                                                                                                                                                                                                                                                                                                                                                                                                                                                                                                                                                                                                                                                                                                                                                                                                                                                                                                                                                                                                                                                                                                                                                                                                                                                                                                                                                                                                                                                                                                                                                                                                                                                                                                                                                                                                                                                                                                                                                                                                                                                                                                                                                                                                                                                                                                                                                                                                                                                                                                                                                                                                                                                                                                                                                                                                                                                                                                                                                                                                                                                                                                                                                                                                                                                                                                                                                                                                                                                                                                                                                                                                                                                                                                                                                                                                                                                                                                                                                                                                                                                                                                                                                                                                                                                                                                                                                                                                                                                                                                                                                                                                                                                                                                                                                                                                                                                                                                                                                                                                                                                                                                                                                                                                                                                                                                                                                                                                                                                                                                                                                                                                                                                                                                                                                                                                                                                                                                                                                                                                                                                                                                                                                                                                                                                                                                                                                                                                                                                                                                                                                                                                                                                                                                                                                                                                                                                                                                                                                                                                                                                                                                                                                                                                                                                                                                                                                                                                                                                                                                                                                                                                                                                                                                                                                                                                                                                                                                                                                                                                                                                                                                                                                                                                                                                                                                                                                                                                                                                                                                                                                                                                                                                                                                                                                                                                                                                                                                                                                                                                                                                                                                                                                                                                                                                                                                                                                                                                                                                                                                                                                                                                                                                                                                                                                                                                                                                                                                                                                                                                                                                                                                                                                                                                                                                                                                                                                                                                                                                                                                                                                                                                                                                                                                                                                                                                                                                                                                                                                                                                                                                                                                                                                                                                                                                                                                                                                                                                                                                                                                                                                                                                                                                                                                                                                                                                                                                                                                                                                                                                                                                                                                                                                                                                                                                                                                                                                                                                                                                                                                                                                                                                                                                                                                                                                                                                                                                                                                                                                                                                                                                                                                                                                                                                                                                                                                                                                                                                                                                                                                                                                                                                                                                                                                                                                                                                                                                                                                                                                                                                                                                                                                                                                                                                                                                                                                                                                                                                                                                                                                                                                                                                                                                                                                                                                                                                                                                                                                                                                                                                                                                                                                                                                                                                                                                                                                                                                                                                                                                                                                                                                                                                                                                                                                                                                                                                                                                                                                                                                                                                                                                                                                                                                                                                                                                                                                                                                                                                                                                                                                                                                                                                                                                                                                                                                                                                                                                                                                                                                                                                                                                                                                                                                                                                                                                                                                                                                                                                                                                                                                                                                                                                                                                                                                                                                                                                                                                                                                                                                                                                                                                                                                                                                                                                                                                                                                                                                                                                                                                                                                                                                                                                                                                                                                                                                                                                                                                                                                                                                                                                                                                                                                                                                                                                                                                                                                                                                                                                                                                                                                                                                                                                                                                                                                                                                                                                                                                                                                                                                                                                                                                                                                                                                                                                                                                                                                                                                                                                                                                                                                                                                                                                                                                                                                                                                                                                                                                                                                                                                                                                                                                                                                                                                                                                                                                                                                                                                                                                                                                                                                                                                                                                                                                                                                                                                                                                                                                                                                                                                                                                                                                                                                                                                                                                                                                                                                   0  0  0  0  0  0  0
   -8.9488    3.3950    0.0000 C   0  0  0  0  0  0  0  0  0  0  0  0
   -9.1056    1.9033    0.0000 C   0  0  0  0  0  0  0  0  0  0  0  0
   -7.8921    1.0216    0.0000 C   0  0  0  0  0  0  0  0  0  0  0  0
   -6.5218    1.6317    0.0000 C   0  0  0  0  0  0  0  0  0  0  0  0
   -5.3083    0.7500    0.0000 C   0  0  0  0  0  0  0  0  0  0  0  0
   -5.3083   -0.7500    0.0000 N   0  0  0  0  0  0  0  0  0  0  0  0
   -3.8817   -1.2135    0.0000 N   0  0  0  0  0  0  0  0  0  0  0  0
   -3.0000    0.0000    0.0000 N   0  0  0  0  0  0  0  0  0  0  0  0
   -3.8817    1.2135    0.0000 N   0  0  0  0  0  0  0  0  0  0  0  0
   -3.4182    2.6401    0.0000 C   0  0  0  0  0  0  0  0  0  0  0  0
   -4.2998    3.8536    0.0000 C   0  0  0  0  0  0  0  0  0  0  0  0
   -3.4182    5.0672    0.0000 N   0  0  0  0  0  0  0  0  0  0  0  0
   -1.9916    4.6036    0.0000 C   0  0  0  0  0  0  0  0  0  0  0  0
   -1.9916    3.1036    0.0000 N   0  0  0  0  0  0  0  0  0  0  0  0
   -0.7780    2.2220    0.0000 C   0  0  0  0  0  0  0  0  0  0  0  0
    0.5923    2.8321    0.0000 C   0  0  0  0  0  0  0  0  0  0  0  0
    1.8058    1.9504    0.0000 C   0  0  0  0  0  0  0  0  0  0  0  0
    1.6490    0.4586    0.0000 C   0  0  0  0  0  0  0  0  0  0  0  0
    2.8625   -0.4231    0.0000 C   0  0  0  0  0  0  0  0  0  0  0  0
    2.8625   -1.9231    0.0000 C   0  0  0  0  0  0  0  0  0  0  0  0
    4.2891   -2.3866    0.0000 N   0  0  0  0  0  0  0  0  0  0  0  0
    5.1708   -1.1731    0.0000 N   0  0  0  0  0  0  0  0  0  0  0  0
    4.2891    0.0404    0.0000 N   0  0  0  0  0  0  0  0  0  0  0  0
    4.7526    1.4670    0.0000 C   0  0  0  0  0  0  0  0  0  0  0  0
    3.7489    2.5818    0.0000 C   0  0  0  0  0  0  0  0  0  0  0  0
    4.2125    4.0083    0.0000 C   0  0  0  0  0  0  0  0  0  0  0  0
    5.6797    4.3202    0.0000 C   0  0  0  0  0  0  0  0  0  0  0  0
    6.6834    3.2055    0.0000 C   0  0  0  0  0  0  0  0  0  0  0  0
    6.2199    1.7789    0.0000 C   0  0  0  0  0  0  0  0  0  0  0  0
    0.2787   -0.1515    0.0000 C   0  0  0  0  0  0  0  0  0  0  0  0
   -0.9348    0.7302    0.0000 C   0  0  0  0  0  0  0  0  0  0  0  0
   -6.3650    3.1235    0.0000 C   0  0  0  0  0  0  0  0  0  0  0  0
   -7.5785    4.0051    0.0000 C   0  0  0  0  0  0  0  0  0  0  0  0
  1  2  1  0
  2  3  2  0
  3  4  1  0
  4  5  2  0
  5  6  1  0
  6  7  2  0
  7  8  1  0
  8  9  2  0
  9 10  1  0
 10 11  1  0
 11 12  2  0
 12 13  1  0
 13 14  2  0
 14 15  1  0
 15 16  1  0
 16 17  2  0
 17 18  1  0
 18 19  2  0
 19 20  1  0
 20 21  2  0
 21 22  1  0
 22 23  2  0
 23 24  1  0
 24 25  1  0
 25 26  2  0
 26 27  1  0
 27 28  2  0
 28 29  1  0
 29 30  2  0
 19 31  1  0
 31 32  2  0
  5 33  1  0
 33 34  2  0
 34  2  1  0
 10  6  1  0
 15 11  1  0
 32 16  1  0
 24 20  1  0
 30 25  1  0
M  END
>  <Title>  (513) 
idAAXGgen7

$$$$
